244
  -OEChem-02061913062D

  8  8  0     0  0  0  0  0  0999 V2000
    3.7320    1.4400    0.0000 O   0  0  0  0  0  0  0  0  0  0  0  0
    2.8660   -0.0600    0.0000 C   0  0  0  0  0  0  0  0  0  0  0  0
    2.8660    0.9400    0.0000 C   0  0  0  0  0  0  0  0  0  0  0  0
    2.0000   -0.5600    0.0000 C   0  0  0  0  0  0  0  0  0  0  0  0
    3.7320   -0.5600    0.0000 C   0  0  0  0  0  0  0  0  0  0  0  0
    2.0000   -1.5600    0.0000 C   0  0  0  0  0  0  0  0  0  0  0  0
    3.7320   -1.5600    0.0000 C   0  0  0  0  0  0  0  0  0  0  0  0
    2.8660   -2.0600    0.0000 C   0  0  0  0  0  0  0  0  0  0  0  0
  1  3  1  0  0  0  0
  2  3  1  0  0  0  0
  2  4  2  0  0  0  0
  2  5  1  0  0  0  0
  4  6  1  0  0  0  0
  5  7  2  0  0  0  0
  6  8  2  0  0  0  0
  7  8  1  0  0  0  0
M  END
> <PUBCHEM_COMPOUND_CID>
244

> <PUBCHEM_COMPOUND_CANONICALIZED>
1

> <PUBCHEM_CACTVS_COMPLEXITY>
55.4

> <PUBCHEM_CACTVS_HBOND_ACCEPTOR>
1

> <PUBCHEM_CACTVS_HBOND_DONOR>
1

> <PUBCHEM_CACTVS_ROTATABLE_BOND>
1

> <PUBCHEM_CACTVS_SUBSKEYS>
AAADccBgIAAAAAAAAAAAAAAAAAAAAAAAAAAwAAAAAAAAAAABAAAAGgAACAAADACgmAIwAIAAAgCAAiBCAAACAAAgAAAIiAAACIgINiKAERCAcAAkwAEImAeAwCAOAAAAAAAAAAAAAAAAAAAAAAAAAAAAAA==

> <PUBCHEM_IUPAC_OPENEYE_NAME>
phenylmethanol

> <PUBCHEM_IUPAC_CAS_NAME>
phenylmethanol

> <PUBCHEM_IUPAC_NAME>
phenylmethanol

> <PUBCHEM_IUPAC_SYSTEMATIC_NAME>
phenylmethanol

> <PUBCHEM_IUPAC_TRADITIONAL_NAME>
phenylmethanol

> <PUBCHEM_IUPAC_INCHI>
InChI=1S/C7H8O/c8-6-7-4-2-1-3-5-7/h1-5,8H,6H2

> <PUBCHEM_IUPAC_INCHIKEY>
WVDDGKGOMKODPV-UHFFFAOYSA-N

> <PUBCHEM_XLOGP3>
1.1

> <PUBCHEM_EXACT_MASS>
108.058

> <PUBCHEM_MOLECULAR_FORMULA>
C7H8O

> <PUBCHEM_MOLECULAR_WEIGHT>
108.14

> <PUBCHEM_OPENEYE_CAN_SMILES>
C1=CC=C(C=C1)CO

> <PUBCHEM_OPENEYE_ISO_SMILES>
C1=CC=C(C=C1)CO

> <PUBCHEM_CACTVS_TPSA>
20.2

> <PUBCHEM_MONOISOTOPIC_WEIGHT>
108.058

> <PUBCHEM_TOTAL_CHARGE>
0

> <PUBCHEM_HEAVY_ATOM_COUNT>
8

> <PUBCHEM_ATOM_DEF_STEREO_COUNT>
0

> <PUBCHEM_ATOM_UDEF_STEREO_COUNT>
0

> <PUBCHEM_BOND_DEF_STEREO_COUNT>
0

> <PUBCHEM_BOND_UDEF_STEREO_COUNT>
0

> <PUBCHEM_ISOTOPIC_ATOM_COUNT>
0

> <PUBCHEM_COMPONENT_COUNT>
1

> <PUBCHEM_CACTVS_TAUTO_COUNT>
-1

> <PUBCHEM_COORDINATE_TYPE>
1
5
255

> <PUBCHEM_BONDANNOTATIONS>
2  4  8
2  5  8
4  6  8
5  7  8
6  8  8
7  8  8

$$$$
54679407
  -OEChem-02061914212D

 29 29  0     1  0  0  0  0  0999 V2000
    5.0868   -3.2929    0.0000 O   0  0  0  0  0  0  0  0  0  0  0  0
    5.0298   -6.3807    0.0000 O   0  0  0  0  0  0  0  0  0  0  0  0
    3.3548   -4.2929    0.0000 O   0  0  0  0  0  0  0  0  0  0  0  0
    6.8189   -3.2929    0.0000 O   0  0  0  0  0  0  0  0  0  0  0  0
    2.4608   -6.0716    0.0000 O   0  0  0  0  0  0  0  0  0  0  0  0
    3.1330   -8.1407    0.0000 O   0  0  0  0  0  0  0  0  0  0  0  0
    5.3086   -8.1407    0.0000 O   0  0  0  0  0  0  0  0  0  0  0  0
    8.5510    2.7071    0.0000 C   0  0  0  0  0  0  0  0  0  0  0  0
    9.4170    3.2071    0.0000 C   0  0  0  0  0  0  0  0  0  0  0  0
    8.5510    1.7071    0.0000 C   0  0  0  0  0  0  0  0  0  0  0  0
    9.4170    4.2071    0.0000 C   0  0  0  0  0  0  0  0  0  0  0  0
    7.6849    1.2071    0.0000 C   0  0  0  0  0  0  0  0  0  0  0  0
   10.2830    4.7071    0.0000 C   0  0  0  0  0  0  0  0  0  0  0  0
    7.6849    0.2071    0.0000 C   0  0  0  0  0  0  0  0  0  0  0  0
   10.2830    5.7071    0.0000 C   0  0  0  0  0  0  0  0  0  0  0  0
    6.8189   -0.2929    0.0000 C   0  0  0  0  0  0  0  0  0  0  0  0
   11.1490    6.2071    0.0000 C   0  0  0  0  0  0  0  0  0  0  0  0
    6.8189   -1.2929    0.0000 C   0  0  0  0  0  0  0  0  0  0  0  0
   11.1490    7.2071    0.0000 C   0  0  0  0  0  0  0  0  0  0  0  0
    5.9529   -1.7929    0.0000 C   0  0  0  0  0  0  0  0  0  0  0  0
   12.0151    7.7071    0.0000 C   0  0  0  0  0  0  0  0  0  0  0  0
    4.2208   -4.7929    0.0000 C   0  0  3  0  0  0  0  0  0  0  0  0
    4.2208   -5.7929    0.0000 C   0  0  2  0  0  0  0  0  0  0  0  0
    5.9529   -2.7929    0.0000 C   0  0  0  0  0  0  0  0  0  0  0  0
    5.0868   -4.2929    0.0000 C   0  0  0  0  0  0  0  0  0  0  0  0
   12.0151    8.7071    0.0000 C   0  0  0  0  0  0  0  0  0  0  0  0
    3.4118   -6.3807    0.0000 C   0  0  0  0  0  0  0  0  0  0  0  0
    3.7208   -7.3317    0.0000 C   0  0  0  0  0  0  0  0  0  0  0  0
    4.7208   -7.3317    0.0000 C   0  0  0  0  0  0  0  0  0  0  0  0
  1 24  1  0  0  0  0
  1 25  1  0  0  0  0
  2 23  1  0  0  0  0
  2 29  1  0  0  0  0
  3 22  1  0  0  0  0
  4 24  2  0  0  0  0
  5 27  1  0  0  0  0
  6 28  1  0  0  0  0
  7 29  2  0  0  0  0
  8  9  1  0  0  0  0
  8 10  1  0  0  0  0
  9 11  1  0  0  0  0
 10 12  1  0  0  0  0
 11 13  1  0  0  0  0
 12 14  1  0  0  0  0
 13 15  1  0  0  0  0
 14 16  1  0  0  0  0
 15 17  1  0  0  0  0
 16 18  1  0  0  0  0
 17 19  1  0  0  0  0
 18 20  1  0  0  0  0
 19 21  1  0  0  0  0
 20 24  1  0  0  0  0
 21 26  1  0  0  0  0
 23 22  1  1  0  0  0
 22 25  1  0  0  0  0
 23 27  1  0  0  0  0
 27 28  2  0  0  0  0
 28 29  1  0  0  0  0
M  END
> <PUBCHEM_COMPOUND_CID>
54679407

> <PUBCHEM_COMPOUND_CANONICALIZED>
1

> <PUBCHEM_CACTVS_COMPLEXITY>
515

> <PUBCHEM_CACTVS_HBOND_ACCEPTOR>
7

> <PUBCHEM_CACTVS_HBOND_DONOR>
3

> <PUBCHEM_CACTVS_ROTATABLE_BOND>
18

> <PUBCHEM_CACTVS_SUBSKEYS>
AAADcfB4OAAAAAAAAAAAAAAAAAAAAQAAAAAAAAAAAAAAAAAAAAAAGgAACAAACBSggAICCAAABgCIAADQCAIAAAAgIAAACAFAAEgBFBIAIAACUAAFwAALIQPIyKCAAAAAAAAAAAAAAAAAAAAAAAAAAAAAAA==

> <PUBCHEM_IUPAC_OPENEYE_NAME>
[2-[(2~{R})-3,4-dihydroxy-5-oxo-2~{H}-furan-2-yl]-2-hydroxy-ethyl] hexadecanoate

> <PUBCHEM_IUPAC_CAS_NAME>
hexadecanoic acid [2-[(2~{R})-3,4-dihydroxy-5-oxo-2~{H}-furan-2-yl]-2-hydroxyethyl] ester

> <PUBCHEM_IUPAC_NAME>
[2-[(2~{R})-3,4-dihydroxy-5-oxo-2~{H}-furan-2-yl]-2-hydroxyethyl] hexadecanoate

> <PUBCHEM_IUPAC_SYSTEMATIC_NAME>
[2-[(2~{R})-3,4-bis(oxidanyl)-5-oxidanylidene-2~{H}-furan-2-yl]-2-oxidanyl-ethyl] hexadecanoate

> <PUBCHEM_IUPAC_TRADITIONAL_NAME>
palmitic acid [2-[(2~{R})-3,4-dihydroxy-5-keto-2~{H}-furan-2-yl]-2-hydroxy-ethyl] ester

> <PUBCHEM_IUPAC_INCHI>
InChI=1S/C22H38O7/c1-2-3-4-5-6-7-8-9-10-11-12-13-14-15-18(24)28-16-17(23)21-19(25)20(26)22(27)29-21/h17,21,23,25-26H,2-16H2,1H3/t17?,21-/m1/s1

> <PUBCHEM_IUPAC_INCHIKEY>
QAQJMLQRFWZOBN-FBLFFUNLSA-N

> <PUBCHEM_XLOGP3>
6.3

> <PUBCHEM_EXACT_MASS>
414.262

> <PUBCHEM_MOLECULAR_FORMULA>
C22H38O7

> <PUBCHEM_MOLECULAR_WEIGHT>
414.539

> <PUBCHEM_OPENEYE_CAN_SMILES>
CCCCCCCCCCCCCCCC(=O)OCC(C1C(=C(C(=O)O1)O)O)O

> <PUBCHEM_OPENEYE_ISO_SMILES>
CCCCCCCCCCCCCCCC(=O)OCC([C@@H]1C(=C(C(=O)O1)O)O)O

> <PUBCHEM_CACTVS_TPSA>
113

> <PUBCHEM_MONOISOTOPIC_WEIGHT>
414.262

> <PUBCHEM_TOTAL_CHARGE>
0

> <PUBCHEM_HEAVY_ATOM_COUNT>
29

> <PUBCHEM_ATOM_DEF_STEREO_COUNT>
1

> <PUBCHEM_ATOM_UDEF_STEREO_COUNT>
1

> <PUBCHEM_BOND_DEF_STEREO_COUNT>
0

> <PUBCHEM_BOND_UDEF_STEREO_COUNT>
0

> <PUBCHEM_ISOTOPIC_ATOM_COUNT>
0

> <PUBCHEM_COMPONENT_COUNT>
1

> <PUBCHEM_CACTVS_TAUTO_COUNT>
-1

> <PUBCHEM_COORDINATE_TYPE>
1
5
255

> <PUBCHEM_BONDANNOTATIONS>
23  22  5
22  3  3

$$$$
307
  -OEChem-02061913062D

 10 10  0     0  0  0  0  0  0999 V2000
    4.5981    2.5000    0.0000 O   0  0  0  0  0  0  0  0  0  0  0  0
    2.8660   -0.5000    0.0000 C   0  0  0  0  0  0  0  0  0  0  0  0
    2.0000   -1.0000    0.0000 C   0  0  0  0  0  0  0  0  0  0  0  0
    3.7320   -1.0000    0.0000 C   0  0  0  0  0  0  0  0  0  0  0  0
    2.0000   -2.0000    0.0000 C   0  0  0  0  0  0  0  0  0  0  0  0
    3.7320   -2.0000    0.0000 C   0  0  0  0  0  0  0  0  0  0  0  0
    2.8660    0.5000    0.0000 C   0  0  0  0  0  0  0  0  0  0  0  0
    2.8660   -2.5000    0.0000 C   0  0  0  0  0  0  0  0  0  0  0  0
    3.7320    1.0000    0.0000 C   0  0  0  0  0  0  0  0  0  0  0  0
    3.7320    2.0000    0.0000 C   0  0  0  0  0  0  0  0  0  0  0  0
  1 10  2  0  0  0  0
  2  3  2  0  0  0  0
  2  4  1  0  0  0  0
  2  7  1  0  0  0  0
  3  5  1  0  0  0  0
  4  6  2  0  0  0  0
  5  8  2  0  0  0  0
  6  8  1  0  0  0  0
  7  9  2  3  0  0  0
  9 10  1  0  0  0  0
M  END
> <PUBCHEM_COMPOUND_CID>
307

> <PUBCHEM_COMPOUND_CANONICALIZED>
1

> <PUBCHEM_CACTVS_COMPLEXITY>
121

> <PUBCHEM_CACTVS_HBOND_ACCEPTOR>
1

> <PUBCHEM_CACTVS_HBOND_DONOR>
0

> <PUBCHEM_CACTVS_ROTATABLE_BOND>
2

> <PUBCHEM_CACTVS_SUBSKEYS>
AAADccBwIAAAAAAAAAAAAAAAAAAAAAAAAAAwAAAAAAAAAAABAAAAGgAAAAAADACgmAIwAIAAAACIAihSgAACAAAgAAAIiAAAAMgIICKAERCAIAAggAAIiYcAgAAOAAAAAAAAAAAAAAAAAAAAAAAAAAAAAA==

> <PUBCHEM_IUPAC_OPENEYE_NAME>
3-phenylprop-2-enal

> <PUBCHEM_IUPAC_CAS_NAME>
3-phenyl-2-propenal

> <PUBCHEM_IUPAC_NAME>
3-phenylprop-2-enal

> <PUBCHEM_IUPAC_SYSTEMATIC_NAME>
3-phenylprop-2-enal

> <PUBCHEM_IUPAC_TRADITIONAL_NAME>
3-phenylacrolein

> <PUBCHEM_IUPAC_INCHI>
InChI=1S/C9H8O/c10-8-4-7-9-5-2-1-3-6-9/h1-8H

> <PUBCHEM_IUPAC_INCHIKEY>
KJPRLNWUNMBNBZ-UHFFFAOYSA-N

> <PUBCHEM_XLOGP3>
1.9

> <PUBCHEM_EXACT_MASS>
132.058

> <PUBCHEM_MOLECULAR_FORMULA>
C9H8O

> <PUBCHEM_MOLECULAR_WEIGHT>
132.162

> <PUBCHEM_OPENEYE_CAN_SMILES>
C1=CC=C(C=C1)C=CC=O

> <PUBCHEM_OPENEYE_ISO_SMILES>
C1=CC=C(C=C1)C=CC=O

> <PUBCHEM_CACTVS_TPSA>
17.1

> <PUBCHEM_MONOISOTOPIC_WEIGHT>
132.058

> <PUBCHEM_TOTAL_CHARGE>
0

> <PUBCHEM_HEAVY_ATOM_COUNT>
10

> <PUBCHEM_ATOM_DEF_STEREO_COUNT>
0

> <PUBCHEM_ATOM_UDEF_STEREO_COUNT>
0

> <PUBCHEM_BOND_DEF_STEREO_COUNT>
0

> <PUBCHEM_BOND_UDEF_STEREO_COUNT>
1

> <PUBCHEM_ISOTOPIC_ATOM_COUNT>
0

> <PUBCHEM_COMPONENT_COUNT>
1

> <PUBCHEM_CACTVS_TAUTO_COUNT>
-1

> <PUBCHEM_COORDINATE_TYPE>
1
5
255

> <PUBCHEM_BONDANNOTATIONS>
2  3  8
2  4  8
3  5  8
4  6  8
5  8  8
6  8  8
7  9  1

$$$$
657014
  -OEChem-02061913102D

 11 12  0     1  0  0  0  0  0999 V2000
    5.4686   -2.1937    0.0000 O   0  0  0  0  0  0  0  0  0  0  0  0
    3.6732   -0.6953    0.0000 C   0  0  2  0  0  0  0  0  0  0  0  0
    4.1510    1.2532    0.0000 C   0  0  0  0  0  0  0  0  0  0  0  0
    3.4144    0.2706    0.0000 C   0  0  1  0  0  0  0  0  0  0  0  0
    5.0460   -1.2874    0.0000 C   0  0  3  0  0  0  0  0  0  0  0  0
    2.2743   -1.2042    0.0000 C   0  0  0  0  0  0  0  0  0  0  0  0
    5.3880   -0.3477    0.0000 C   0  0  0  0  0  0  0  0  0  0  0  0
    2.0155   -0.2382    0.0000 C   0  0  0  0  0  0  0  0  0  0  0  0
    3.9321   -1.6613    0.0000 C   0  0  0  0  0  0  0  0  0  0  0  0
    4.0465    2.2477    0.0000 C   0  0  0  0  0  0  0  0  0  0  0  0
    5.0646    1.6599    0.0000 C   0  0  0  0  0  0  0  0  0  0  0  0
  1  5  1  0  0  0  0
  2  3  1  0  0  0  0
  2  5  1  0  0  0  0
  2  6  1  0  0  0  0
  2  9  1  1  0  0  0
  3  4  1  0  0  0  0
  3 10  1  0  0  0  0
  3 11  1  0  0  0  0
  4  7  1  0  0  0  0
  4  8  1  0  0  0  0
  5  7  1  0  0  0  0
  6  8  1  0  0  0  0
M  END
> <PUBCHEM_COMPOUND_CID>
657014

> <PUBCHEM_COMPOUND_CANONICALIZED>
1

> <PUBCHEM_CACTVS_COMPLEXITY>
185

> <PUBCHEM_CACTVS_HBOND_ACCEPTOR>
1

> <PUBCHEM_CACTVS_HBOND_DONOR>
1

> <PUBCHEM_CACTVS_ROTATABLE_BOND>
0

> <PUBCHEM_CACTVS_SUBSKEYS>
AAADceBwIAAAAAAAAAAAAAAAAAAAAYMAAAAwAAAAAAAAAAAAAAAAGgAACAAADxSggAICAAAAAgAAAAAAAAAAAAAAAAAAAAAAAAAAEAIAAAAAQAAEAAAAAAGAwPAPgAAAAAAAAACAAAIAABAAAYAADAAAAA==

> <PUBCHEM_IUPAC_OPENEYE_NAME>
(1~{R},4~{R})-1,7,7-trimethylnorbornan-2-ol

> <PUBCHEM_IUPAC_CAS_NAME>
(1~{R},4~{R})-1,7,7-trimethyl-2-bicyclo[2.2.1]heptanol

> <PUBCHEM_IUPAC_NAME>
(1~{R},4~{R})-1,7,7-trimethylbicyclo[2.2.1]heptan-2-ol

> <PUBCHEM_IUPAC_SYSTEMATIC_NAME>
(1~{R},4~{R})-1,7,7-trimethylbicyclo[2.2.1]heptan-2-ol

> <PUBCHEM_IUPAC_TRADITIONAL_NAME>
(1~{R},4~{R})-1,7,7-trimethylnorbornan-2-ol

> <PUBCHEM_IUPAC_INCHI>
InChI=1S/C10H18O/c1-9(2)7-4-5-10(9,3)8(11)6-7/h7-8,11H,4-6H2,1-3H3/t7-,8?,10+/m1/s1

> <PUBCHEM_IUPAC_INCHIKEY>
DTGKSKDOIYIVQL-SHTILUHOSA-N

> <PUBCHEM_XLOGP3>
2.7

> <PUBCHEM_EXACT_MASS>
154.136

> <PUBCHEM_MOLECULAR_FORMULA>
C10H18O

> <PUBCHEM_MOLECULAR_WEIGHT>
154.253

> <PUBCHEM_OPENEYE_CAN_SMILES>
CC1(C2CCC1(C(C2)O)C)C

> <PUBCHEM_OPENEYE_ISO_SMILES>
C[C@@]12CC[C@@H](C1(C)C)CC2O

> <PUBCHEM_CACTVS_TPSA>
20.2

> <PUBCHEM_MONOISOTOPIC_WEIGHT>
154.136

> <PUBCHEM_TOTAL_CHARGE>
0

> <PUBCHEM_HEAVY_ATOM_COUNT>
11

> <PUBCHEM_ATOM_DEF_STEREO_COUNT>
2

> <PUBCHEM_ATOM_UDEF_STEREO_COUNT>
1

> <PUBCHEM_BOND_DEF_STEREO_COUNT>
0

> <PUBCHEM_BOND_UDEF_STEREO_COUNT>
0

> <PUBCHEM_ISOTOPIC_ATOM_COUNT>
0

> <PUBCHEM_COMPONENT_COUNT>
1

> <PUBCHEM_CACTVS_TAUTO_COUNT>
-1

> <PUBCHEM_COORDINATE_TYPE>
1
5
255

> <PUBCHEM_BONDANNOTATIONS>
5  1  3
2  9  5
4  12  6

$$$$
8981
  -OEChem-02061913072D

 13 14  0     0  0  0  0  0  0999 V2000
    4.6660   -1.1900    0.0000 N   0  0  0  0  0  0  0  0  0  0  0  0
    5.5321   -0.6900    0.0000 C   0  0  0  0  0  0  0  0  0  0  0  0
    5.5321    0.3100    0.0000 C   0  0  0  0  0  0  0  0  0  0  0  0
    3.8000   -0.6900    0.0000 C   0  0  0  0  0  0  0  0  0  0  0  0
    4.6660    0.8100    0.0000 C   0  0  0  0  0  0  0  0  0  0  0  0
    3.8000    0.3100    0.0000 C   0  0  0  0  0  0  0  0  0  0  0  0
    6.5321   -0.6900    0.0000 C   0  0  0  0  0  0  0  0  0  0  0  0
    6.0321   -1.5560    0.0000 C   0  0  0  0  0  0  0  0  0  0  0  0
    2.9061   -1.2247    0.0000 C   0  0  0  0  0  0  0  0  0  0  0  0
    4.6660    1.8100    0.0000 C   0  0  0  0  0  0  0  0  0  0  0  0
    2.9061    0.8447    0.0000 C   0  0  0  0  0  0  0  0  0  0  0  0
    2.0000   -0.7108    0.0000 C   0  0  0  0  0  0  0  0  0  0  0  0
    2.0000    0.3308    0.0000 C   0  0  0  0  0  0  0  0  0  0  0  0
  1  2  1  0  0  0  0
  1  4  1  0  0  0  0
  2  3  1  0  0  0  0
  2  7  1  0  0  0  0
  2  8  1  0  0  0  0
  3  5  2  0  0  0  0
  4  6  1  0  0  0  0
  4  9  2  0  0  0  0
  5  6  1  0  0  0  0
  5 10  1  0  0  0  0
  6 11  2  0  0  0  0
  9 12  1  0  0  0  0
 11 13  1  0  0  0  0
 12 13  2  0  0  0  0
M  END
> <PUBCHEM_COMPOUND_CID>
8981

> <PUBCHEM_COMPOUND_CANONICALIZED>
1

> <PUBCHEM_CACTVS_COMPLEXITY>
227

> <PUBCHEM_CACTVS_HBOND_ACCEPTOR>
1

> <PUBCHEM_CACTVS_HBOND_DONOR>
1

> <PUBCHEM_CACTVS_ROTATABLE_BOND>
0

> <PUBCHEM_CACTVS_SUBSKEYS>
AAADccByAAAAAAAAAAAAAAAAAAAAAAAAAAAwQAAAAAAAAACBAAAAHAAQAAAADIiBGAAywILAAACAAiRCQACCAAAhAgAIiAAAZIgIICLAkZGEIAhgkADIyAcQgIAOAAAAAAACAAAAAAAAAAQAAAAAAAAAAA==

> <PUBCHEM_IUPAC_OPENEYE_NAME>
2,2,4-trimethyl-1~{H}-quinoline

> <PUBCHEM_IUPAC_CAS_NAME>
2,2,4-trimethyl-1~{H}-quinoline

> <PUBCHEM_IUPAC_NAME>
2,2,4-trimethyl-1~{H}-quinoline

> <PUBCHEM_IUPAC_SYSTEMATIC_NAME>
2,2,4-trimethyl-1~{H}-quinoline

> <PUBCHEM_IUPAC_TRADITIONAL_NAME>
2,2,4-trimethyl-1~{H}-quinoline

> <PUBCHEM_IUPAC_INCHI>
InChI=1S/C12H15N/c1-9-8-12(2,3)13-11-7-5-4-6-10(9)11/h4-8,13H,1-3H3

> <PUBCHEM_IUPAC_INCHIKEY>
ZNRLMGFXSPUZNR-UHFFFAOYSA-N

> <PUBCHEM_XLOGP3_AA>
2.8

> <PUBCHEM_EXACT_MASS>
173.12

> <PUBCHEM_MOLECULAR_FORMULA>
C12H15N

> <PUBCHEM_MOLECULAR_WEIGHT>
173.259

> <PUBCHEM_OPENEYE_CAN_SMILES>
CC1=CC(NC2=CC=CC=C12)(C)C

> <PUBCHEM_OPENEYE_ISO_SMILES>
CC1=CC(NC2=CC=CC=C12)(C)C

> <PUBCHEM_CACTVS_TPSA>
12

> <PUBCHEM_MONOISOTOPIC_WEIGHT>
173.12

> <PUBCHEM_TOTAL_CHARGE>
0

> <PUBCHEM_HEAVY_ATOM_COUNT>
13

> <PUBCHEM_ATOM_DEF_STEREO_COUNT>
0

> <PUBCHEM_ATOM_UDEF_STEREO_COUNT>
0

> <PUBCHEM_BOND_DEF_STEREO_COUNT>
0

> <PUBCHEM_BOND_UDEF_STEREO_COUNT>
0

> <PUBCHEM_ISOTOPIC_ATOM_COUNT>
0

> <PUBCHEM_COMPONENT_COUNT>
1

> <PUBCHEM_CACTVS_TAUTO_COUNT>
-1

> <PUBCHEM_COORDINATE_TYPE>
1
5
255

> <PUBCHEM_BONDANNOTATIONS>
11  13  8
12  13  8
4  6  8
4  9  8
6  11  8
9  12  8

$$$$
5365543
  -OEChem-02061913342D

  9 10  0     1  0  0  0  0  0999 V2000
    5.0503    0.9948    0.0000 C   0  0  3  0  0  0  0  0  0  0  0  0
    4.7915    0.0288    0.0000 C   0  0  3  0  0  0  0  0  0  0  0  0
    4.3137    1.9774    0.0000 C   0  0  0  0  0  0  0  0  0  0  0  0
    3.0768    0.3765    0.0000 C   0  0  0  0  0  0  0  0  0  0  0  0
    3.4188   -0.5632    0.0000 C   0  0  0  0  0  0  0  0  0  0  0  0
    6.4493    0.4859    0.0000 C   0  0  0  0  0  0  0  0  0  0  0  0
    6.1905   -0.4800    0.0000 C   0  0  0  0  0  0  0  0  0  0  0  0
    2.9962   -1.4695    0.0000 C   0  0  0  0  0  0  0  0  0  0  0  0
    2.0000   -1.5566    0.0000 C   0  0  0  0  0  0  0  0  0  0  0  0
  1  3  1  0  0  0  0
  1  4  1  0  0  0  0
  1  6  1  0  0  0  0
  2  3  1  0  0  0  0
  2  5  1  0  0  0  0
  2  7  1  0  0  0  0
  4  5  1  0  0  0  0
  5  8  2  0  0  0  0
  6  7  2  0  0  0  0
  8  9  1  0  0  0  0
M  END
> <PUBCHEM_COMPOUND_CID>
5365543

> <PUBCHEM_COMPOUND_CANONICALIZED>
1

> <PUBCHEM_CACTVS_COMPLEXITY>
175

> <PUBCHEM_CACTVS_HBOND_ACCEPTOR>
0

> <PUBCHEM_CACTVS_HBOND_DONOR>
0

> <PUBCHEM_CACTVS_ROTATABLE_BOND>
0

> <PUBCHEM_CACTVS_SUBSKEYS>
AAADccBwAAAAAAAAAAAAAAAAAAAAAYIAAAAgAAAAAAAAAAAAAAAAGAAAAAAADQCAAAACAAAAAACAAiBCAAAAAAAgAAAICAAAAAgAAAIAAQAAAAAAgAAIAAMAAAAOAAAAAAAAAAAAAAAAAAAAAQAAAAAAAA==

> <PUBCHEM_IUPAC_OPENEYE_NAME>
(5~{E})-5-ethylidenebicyclo[2.2.1]hept-2-ene

> <PUBCHEM_IUPAC_CAS_NAME>
(5~{E})-5-ethylidenebicyclo[2.2.1]hept-2-ene

> <PUBCHEM_IUPAC_NAME>
(5~{E})-5-ethylidenebicyclo[2.2.1]hept-2-ene

> <PUBCHEM_IUPAC_SYSTEMATIC_NAME>
(5~{E})-5-ethylidenebicyclo[2.2.1]hept-2-ene

> <PUBCHEM_IUPAC_TRADITIONAL_NAME>
(5~{E})-5-ethylidenebicyclo[2.2.1]hept-2-ene

> <PUBCHEM_IUPAC_INCHI>
InChI=1S/C9H12/c1-2-8-5-7-3-4-9(8)6-7/h2-4,7,9H,5-6H2,1H3/b8-2+

> <PUBCHEM_IUPAC_INCHIKEY>
OJOWICOBYCXEKR-KRXBUXKQSA-N

> <PUBCHEM_XLOGP3_AA>
2.2

> <PUBCHEM_EXACT_MASS>
120.094

> <PUBCHEM_MOLECULAR_FORMULA>
C9H12

> <PUBCHEM_MOLECULAR_WEIGHT>
120.195

> <PUBCHEM_OPENEYE_CAN_SMILES>
CC=C1CC2CC1C=C2

> <PUBCHEM_OPENEYE_ISO_SMILES>
C/C=C/1\CC2CC1C=C2

> <PUBCHEM_CACTVS_TPSA>
0

> <PUBCHEM_MONOISOTOPIC_WEIGHT>
120.094

> <PUBCHEM_TOTAL_CHARGE>
0

> <PUBCHEM_HEAVY_ATOM_COUNT>
9

> <PUBCHEM_ATOM_DEF_STEREO_COUNT>
0

> <PUBCHEM_ATOM_UDEF_STEREO_COUNT>
2

> <PUBCHEM_BOND_DEF_STEREO_COUNT>
1

> <PUBCHEM_BOND_UDEF_STEREO_COUNT>
0

> <PUBCHEM_ISOTOPIC_ATOM_COUNT>
0

> <PUBCHEM_COMPONENT_COUNT>
1

> <PUBCHEM_CACTVS_TAUTO_COUNT>
-1

> <PUBCHEM_COORDINATE_TYPE>
1
5
255

> <PUBCHEM_BONDANNOTATIONS>
1  3  3
2  5  3

$$$$
8028
  -OEChem-02061913072D

  5  5  0     0  0  0  0  0  0999 V2000
    2.8090   -0.7694    0.0000 O   0  0  0  0  0  0  0  0  0  0  0  0
    2.3090    0.7694    0.0000 C   0  0  0  0  0  0  0  0  0  0  0  0
    3.3090    0.7694    0.0000 C   0  0  0  0  0  0  0  0  0  0  0  0
    3.6180   -0.1816    0.0000 C   0  0  0  0  0  0  0  0  0  0  0  0
    2.0000   -0.1816    0.0000 C   0  0  0  0  0  0  0  0  0  0  0  0
  1  4  1  0  0  0  0
  1  5  1  0  0  0  0
  2  3  1  0  0  0  0
  2  5  1  0  0  0  0
  3  4  1  0  0  0  0
M  END
> <PUBCHEM_COMPOUND_CID>
8028

> <PUBCHEM_COMPOUND_CANONICALIZED>
1

> <PUBCHEM_MOLECULAR_WEIGHT>
72.107

> <PUBCHEM_MONOISOTOPIC_WEIGHT>
72.058

> <PUBCHEM_EXACT_MASS>
72.058

> <PUBCHEM_MOLECULAR_FORMULA>
C4H8O

> <PUBCHEM_IUPAC_INCHI>
InChI=1S/C4H8O/c1-2-4-5-3-1/h1-4H2

> <PUBCHEM_IUPAC_INCHIKEY>
WYURNTSHIVDZCO-UHFFFAOYSA-N

> <PUBCHEM_XLOGP3>
0.5

> <PUBCHEM_OPENEYE_CAN_SMILES>
C1CCOC1

> <PUBCHEM_OPENEYE_ISO_SMILES>
C1CCOC1

> <PUBCHEM_IUPAC_NAME>
oxolane

> <PUBCHEM_IUPAC_OPENEYE_NAME>
tetrahydrofuran

> <PUBCHEM_IUPAC_CAS_NAME>
oxolane

> <PUBCHEM_IUPAC_TRADITIONAL_NAME>
tetrahydrofuran

> <PUBCHEM_IUPAC_SYSTEMATIC_NAME>
oxolane

> <PUBCHEM_CACTVS_HBOND_DONOR>
0

> <PUBCHEM_CACTVS_HBOND_ACCEPTOR>
1

> <PUBCHEM_CACTVS_ROTATABLE_BOND>
0

> <PUBCHEM_CACTVS_COMPLEXITY>
22.8

> <PUBCHEM_CACTVS_TPSA>
9.2

> <PUBCHEM_CACTVS_SUBSKEYS>
AAADccBgIAAAAAAAAAAAAAAAAAAAASAAAAAAAAAAAAAAAAAAAAAAGgAAAAAACACggAIAAAAABAAAAAAAAAAAAAAAAAAAAAAAAAAAAAAAAAACAAAEAAAAAAAAAAAAAAAAAAAAAAAAAAAAAAAAAAAAAAAAAA==

> <PUBCHEM_TOTAL_CHARGE>
0

> <PUBCHEM_HEAVY_ATOM_COUNT>
5

> <PUBCHEM_ATOM_DEF_STEREO_COUNT>
0

> <PUBCHEM_ATOM_UDEF_STEREO_COUNT>
0

> <PUBCHEM_BOND_DEF_STEREO_COUNT>
0

> <PUBCHEM_BOND_UDEF_STEREO_COUNT>
0

> <PUBCHEM_ISOTOPIC_ATOM_COUNT>
0

> <PUBCHEM_COMPONENT_COUNT>
1

> <PUBCHEM_CACTVS_TAUTO_COUNT>
-1

> <PUBCHEM_COORDINATE_TYPE>
1
5
255

$$$$
58855793
  -OEChem-02061914252D

 29 31  0     1  0  0  0  0  0999 V2000
    2.0000   -4.8465    0.0000 O   0  0  0  0  0  0  0  0  0  0  0  0
    5.4641    1.1535    0.0000 C   0  0  2  0  0  0  0  0  0  0  0  0
    6.4103    1.4582    0.0000 C   0  0  3  0  0  0  0  0  0  0  0  0
    5.4641    0.1535    0.0000 C   0  0  3  0  0  0  0  0  0  0  0  0
    6.9939    0.6535    0.0000 C   0  0  0  0  0  0  0  0  0  0  0  0
    6.4103   -0.1512    0.0000 C   0  0  0  0  0  0  0  0  0  0  0  0
    4.5981    1.6535    0.0000 C   0  0  0  0  0  0  0  0  0  0  0  0
    6.7210    2.4087    0.0000 C   0  0  2  0  0  0  0  0  0  0  0  0
    4.5981   -0.3465    0.0000 C   0  0  0  0  0  0  0  0  0  0  0  0
    5.4641    2.1535    0.0000 C   0  0  0  0  0  0  0  0  0  0  0  0
    3.7320    1.1535    0.0000 C   0  0  0  0  0  0  0  0  0  0  0  0
    3.7320    0.1535    0.0000 C   0  0  0  0  0  0  0  0  0  0  0  0
    6.0531    3.1530    0.0000 C   0  0  0  0  0  0  0  0  0  0  0  0
    7.6995    2.6150    0.0000 C   0  0  0  0  0  0  0  0  0  0  0  0
    4.5981   -1.3465    0.0000 C   0  0  0  0  0  0  0  0  0  0  0  0
    8.0102    3.5655    0.0000 C   0  0  0  0  0  0  0  0  0  0  0  0
    3.7320   -1.8465    0.0000 C   0  0  0  0  0  0  0  0  0  0  0  0
    8.9887    3.7717    0.0000 C   0  0  1  0  0  0  0  0  0  0  0  0
    3.7320   -2.8465    0.0000 C   0  0  0  0  0  0  0  0  0  0  0  0
    9.2993    4.7222    0.0000 C   0  0  0  0  0  0  0  0  0  0  0  0
    2.8660   -3.3465    0.0000 C   0  0  0  0  0  0  0  0  0  0  0  0
    9.6565    3.0274    0.0000 C   0  0  0  0  0  0  0  0  0  0  0  0
    4.5981   -3.3465    0.0000 C   0  0  0  0  0  0  0  0  0  0  0  0
    2.8660   -4.3465    0.0000 C   0  0  2  0  0  0  0  0  0  0  0  0
    4.5981   -4.3465    0.0000 C   0  0  0  0  0  0  0  0  0  0  0  0
    3.7320   -4.8465    0.0000 C   0  0  0  0  0  0  0  0  0  0  0  0
   10.2778    4.9284    0.0000 C   0  0  0  0  0  0  0  0  0  0  0  0
    8.6315    5.4665    0.0000 C   0  0  0  0  0  0  0  0  0  0  0  0
    5.4641   -2.8465    0.0000 C   0  0  0  0  0  0  0  0  0  0  0  0
 24  1  1  6  0  0  0
  2  3  1  0  0  0  0
  2  4  1  0  0  0  0
  2  7  1  0  0  0  0
  2 10  1  1  0  0  0
  3  5  1  0  0  0  0
  3  8  1  0  0  0  0
  4  6  1  0  0  0  0
  4  9  1  0  0  0  0
  5  6  1  0  0  0  0
  7 11  1  0  0  0  0
  8 13  1  6  0  0  0
  8 14  1  0  0  0  0
  9 12  1  0  0  0  0
  9 15  2  0  0  0  0
 11 12  1  0  0  0  0
 14 16  2  0  0  0  0
 15 17  1  0  0  0  0
 16 18  1  0  0  0  0
 17 19  2  0  0  0  0
 18 20  1  0  0  0  0
 18 22  1  1  0  0  0
 19 21  1  0  0  0  0
 19 23  1  0  0  0  0
 20 27  1  0  0  0  0
 20 28  1  0  0  0  0
 21 24  1  0  0  0  0
 23 25  1  0  0  0  0
 23 29  2  0  0  0  0
 24 26  1  0  0  0  0
 25 26  1  0  0  0  0
M  END
> <PUBCHEM_COMPOUND_CID>
58855793

> <PUBCHEM_COMPOUND_CANONICALIZED>
1

> <PUBCHEM_CACTVS_COMPLEXITY>
678

> <PUBCHEM_CACTVS_HBOND_ACCEPTOR>
1

> <PUBCHEM_CACTVS_HBOND_DONOR>
1

> <PUBCHEM_CACTVS_ROTATABLE_BOND>
5

> <PUBCHEM_CACTVS_SUBSKEYS>
AAADcfB4IAAAAAAAAAAAAAAAAAAAAYAAAAAwYAAAAAAAAGAAAAAAGgAACAAADxSggAICAAAAAgCAAiBCAAAAAAAgAAAICAAAAAgIEAIAAQAAQAAEwAAIgAOAwMAPgAAAAAAAAAAAAAAAACAAAQAACAAAAA==

> <PUBCHEM_IUPAC_OPENEYE_NAME>
(1~{S},3~{Z})-3-[(2~{E})-2-[(7~{a}~{R})-7~{a}-methyl-1-[(~{E},1~{R},4~{R})-1,4,5-trimethylhex-2-enyl]-2,3,3~{a},5,6,7-hexahydro-1~{H}-inden-4-ylidene]ethylidene]-4-methylene-cyclohexanol

> <PUBCHEM_IUPAC_CAS_NAME>
(1~{S},3~{Z})-3-[(2~{E})-2-[(7~{a}~{R})-1-[(~{E},2~{R},5~{R})-5,6-dimethylhept-3-en-2-yl]-7~{a}-methyl-2,3,3~{a},5,6,7-hexahydro-1~{H}-inden-4-ylidene]ethylidene]-4-methylene-1-cyclohexanol

> <PUBCHEM_IUPAC_NAME>
(1~{S},3~{Z})-3-[(2~{E})-2-[(7~{a}~{R})-1-[(~{E},2~{R},5~{R})-5,6-dimethylhept-3-en-2-yl]-7~{a}-methyl-2,3,3~{a},5,6,7-hexahydro-1~{H}-inden-4-ylidene]ethylidene]-4-methylidenecyclohexan-1-ol

> <PUBCHEM_IUPAC_SYSTEMATIC_NAME>
(1~{S},3~{Z})-3-[(2~{E})-2-[(7~{a}~{R})-1-[(~{E},2~{R},5~{R})-5,6-dimethylhept-3-en-2-yl]-7~{a}-methyl-2,3,3~{a},5,6,7-hexahydro-1~{H}-inden-4-ylidene]ethylidene]-4-methylidene-cyclohexan-1-ol

> <PUBCHEM_IUPAC_TRADITIONAL_NAME>
(1~{S},3~{Z})-3-[(2~{E})-2-[(7~{a}~{R})-7~{a}-methyl-1-[(~{E},1~{R},4~{R})-1,4,5-trimethylhex-2-enyl]-2,3,3~{a},5,6,7-hexahydro-1~{H}-inden-4-ylidene]ethylidene]-4-methylene-cyclohexanol

> <PUBCHEM_IUPAC_INCHI>
InChI=1S/C28H44O/c1-19(2)20(3)9-10-22(5)26-15-16-27-23(8-7-17-28(26,27)6)12-13-24-18-25(29)14-11-21(24)4/h9-10,12-13,19-20,22,25-27,29H,4,7-8,11,14-18H2,1-3,5-6H3/b10-9+,23-12+,24-13-/t20-,22+,25-,26?,27?,28+/m0/s1

> <PUBCHEM_IUPAC_INCHIKEY>
MECHNRXZTMCUDQ-DAZNFBTHSA-N

> <PUBCHEM_XLOGP3_AA>
7.4

> <PUBCHEM_EXACT_MASS>
396.339

> <PUBCHEM_MOLECULAR_FORMULA>
C28H44O

> <PUBCHEM_MOLECULAR_WEIGHT>
396.659

> <PUBCHEM_OPENEYE_CAN_SMILES>
CC(C)C(C)C=CC(C)C1CCC2C1(CCCC2=CC=C3CC(CCC3=C)O)C

> <PUBCHEM_OPENEYE_ISO_SMILES>
C[C@H](/C=C/[C@H](C)C(C)C)C1CCC\2[C@@]1(CCC/C2=C\C=C/3\C[C@H](CCC3=C)O)C

> <PUBCHEM_CACTVS_TPSA>
20.2

> <PUBCHEM_MONOISOTOPIC_WEIGHT>
396.339

> <PUBCHEM_TOTAL_CHARGE>
0

> <PUBCHEM_HEAVY_ATOM_COUNT>
29

> <PUBCHEM_ATOM_DEF_STEREO_COUNT>
4

> <PUBCHEM_ATOM_UDEF_STEREO_COUNT>
2

> <PUBCHEM_BOND_DEF_STEREO_COUNT>
3

> <PUBCHEM_BOND_UDEF_STEREO_COUNT>
0

> <PUBCHEM_ISOTOPIC_ATOM_COUNT>
0

> <PUBCHEM_COMPONENT_COUNT>
1

> <PUBCHEM_CACTVS_TAUTO_COUNT>
-1

> <PUBCHEM_COORDINATE_TYPE>
1
5
255

> <PUBCHEM_BONDANNOTATIONS>
24  1  6
18  22  5
2  10  5
3  5  3
4  6  3
8  13  6

$$$$
46783411
  -OEChem-02061914162D

 54 61  0     1  0  0  0  0  0999 V2000
   18.3182   -1.3888    0.0000 O   0  0  0  0  0  0  0  0  0  0  0  0
   12.9292   -2.4619    0.0000 O   0  0  0  0  0  0  0  0  0  0  0  0
   19.5591    3.4894    0.0000 O   0  0  0  0  0  0  0  0  0  0  0  0
   12.0632   -0.9619    0.0000 O   0  0  0  0  0  0  0  0  0  0  0  0
   21.3186    3.7719    0.0000 O   0  0  0  0  0  0  0  0  0  0  0  0
    9.4651   -2.4619    0.0000 O   0  0  0  0  0  0  0  0  0  0  0  0
    9.4651   -0.4619    0.0000 O   0  0  0  0  0  0  0  0  0  0  0  0
    7.7331   -0.4619    0.0000 O   0  0  0  0  0  0  0  0  0  0  0  0
    6.0010   -2.4619    0.0000 O   0  0  0  0  0  0  0  0  0  0  0  0
    7.7331   -3.4619    0.0000 O   0  0  0  0  0  0  0  0  0  0  0  0
    4.2690   -2.4619    0.0000 O   0  0  0  0  0  0  0  0  0  0  0  0
    4.2690    0.5381    0.0000 O   0  0  0  0  0  0  0  0  0  0  0  0
    2.5369   -0.4619    0.0000 O   0  0  0  0  0  0  0  0  0  0  0  0
   18.3144   -0.3888    0.0000 C   0  0  1  0  0  0  0  0  0  0  0  0
   17.4503   -0.8921    0.0000 C   0  0  1  0  0  0  0  0  0  0  0  0
   16.5823   -0.3954    0.0000 C   0  0  1  0  0  0  0  0  0  0  0  0
   18.3105    0.6112    0.0000 C   0  0  2  0  0  0  0  0  0  0  0  0
   15.6743   -0.9058    0.0000 C   0  0  2  0  0  0  0  0  0  0  0  0
   15.6703   -1.9474    0.0000 C   0  0  2  0  0  0  0  0  0  0  0  0
   16.5785    0.6046    0.0000 C   0  0  0  0  0  0  0  0  0  0  0  0
   17.4426    1.1079    0.0000 C   0  0  0  0  0  0  0  0  0  0  0  0
   19.2556    0.9196    0.0000 C   0  0  2  0  0  0  0  0  0  0  0  0
   17.4704   -1.9335    0.0000 C   0  0  0  0  0  0  0  0  0  0  0  0
   19.2618   -0.6898    0.0000 C   0  0  0  0  0  0  0  0  0  0  0  0
   16.5744   -2.4647    0.0000 C   0  0  0  0  0  0  0  0  0  0  0  0
   19.8423    0.1171    0.0000 C   0  0  0  0  0  0  0  0  0  0  0  0
   14.7453   -0.3453    0.0000 C   0  0  0  0  0  0  0  0  0  0  0  0
   14.7370   -2.5007    0.0000 C   0  0  0  0  0  0  0  0  0  0  0  0
   18.3067    1.6112    0.0000 C   0  0  0  0  0  0  0  0  0  0  0  0
   15.6782    0.0942    0.0000 C   0  0  0  0  0  0  0  0  0  0  0  0
   13.7994   -0.8769    0.0000 C   0  0  0  0  0  0  0  0  0  0  0  0
   13.7953   -1.9619    0.0000 C   0  0  2  0  0  0  0  0  0  0  0  0
   19.5626    1.8713    0.0000 C   0  0  0  0  0  0  0  0  0  0  0  0
   18.9731    2.6791    0.0000 C   0  0  0  0  0  0  0  0  0  0  0  0
   20.5130    2.1824    0.0000 C   0  0  0  0  0  0  0  0  0  0  0  0
   12.0632   -1.9619    0.0000 C   0  0  2  0  0  0  0  0  0  0  0  0
   20.5108    3.1824    0.0000 C   0  0  0  0  0  0  0  0  0  0  0  0
   11.1972   -2.4619    0.0000 C   0  0  0  0  0  0  0  0  0  0  0  0
   10.3312   -1.9619    0.0000 C   0  0  2  0  0  0  0  0  0  0  0  0
   11.1972   -0.4619    0.0000 C   0  0  3  0  0  0  0  0  0  0  0  0
   10.3312   -0.9619    0.0000 C   0  0  1  0  0  0  0  0  0  0  0  0
   11.1972    0.5381    0.0000 C   0  0  0  0  0  0  0  0  0  0  0  0
    8.5991   -0.9619    0.0000 C   0  0  2  0  0  0  0  0  0  0  0  0
    8.5991   -1.9619    0.0000 C   0  0  0  0  0  0  0  0  0  0  0  0
    7.7331   -2.4619    0.0000 C   0  0  2  0  0  0  0  0  0  0  0  0
    6.8671   -0.9619    0.0000 C   0  0  3  0  0  0  0  0  0  0  0  0
    6.8671   -1.9619    0.0000 C   0  0  1  0  0  0  0  0  0  0  0  0
    6.0010   -0.4619    0.0000 C   0  0  0  0  0  0  0  0  0  0  0  0
    5.1350   -1.9619    0.0000 C   0  0  2  0  0  0  0  0  0  0  0  0
    5.1350   -0.9619    0.0000 C   0  0  0  0  0  0  0  0  0  0  0  0
    4.2690   -0.4619    0.0000 C   0  0  2  0  0  0  0  0  0  0  0  0
    3.4030   -1.9619    0.0000 C   0  0  3  0  0  0  0  0  0  0  0  0
    3.4030   -0.9619    0.0000 C   0  0  1  0  0  0  0  0  0  0  0  0
    2.5369   -2.4619    0.0000 C   0  0  0  0  0  0  0  0  0  0  0  0
 14  1  1  1  0  0  0
 32  2  1  1  0  0  0
 36  2  1  1  0  0  0
  3 34  1  0  0  0  0
  3 37  1  0  0  0  0
  4 36  1  0  0  0  0
  4 40  1  0  0  0  0
  5 37  2  0  0  0  0
 39  6  1  1  0  0  0
 41  7  1  6  0  0  0
 43  7  1  1  0  0  0
  8 43  1  0  0  0  0
  8 46  1  0  0  0  0
 47  9  1  6  0  0  0
 49  9  1  6  0  0  0
 45 10  1  1  0  0  0
 11 49  1  0  0  0  0
 11 52  1  0  0  0  0
 51 12  1  6  0  0  0
 53 13  1  1  0  0  0
 14 15  1  0  0  0  0
 14 17  1  0  0  0  0
 14 24  1  0  0  0  0
 15 16  1  0  0  0  0
 15 23  1  0  0  0  0
 16 18  1  0  0  0  0
 16 20  1  0  0  0  0
 17 21  1  0  0  0  0
 17 22  1  0  0  0  0
 17 29  1  1  0  0  0
 18 19  1  0  0  0  0
 18 27  1  0  0  0  0
 18 30  1  1  0  0  0
 19 25  1  0  0  0  0
 19 28  1  0  0  0  0
 20 21  1  0  0  0  0
 22 26  1  0  0  0  0
 22 33  1  1  0  0  0
 23 25  1  0  0  0  0
 24 26  1  0  0  0  0
 27 31  1  0  0  0  0
 28 32  1  0  0  0  0
 31 32  1  0  0  0  0
 33 34  1  0  0  0  0
 33 35  2  0  0  0  0
 35 37  1  0  0  0  0
 36 38  1  0  0  0  0
 38 39  1  0  0  0  0
 39 41  1  0  0  0  0
 40 41  1  0  0  0  0
 40 42  1  0  0  0  0
 43 44  1  0  0  0  0
 44 45  1  0  0  0  0
 45 47  1  0  0  0  0
 46 47  1  0  0  0  0
 46 48  1  0  0  0  0
 49 50  1  0  0  0  0
 50 51  1  0  0  0  0
 51 53  1  0  0  0  0
 52 53  1  0  0  0  0
 52 54  1  0  0  0  0
M  END
> <PUBCHEM_COMPOUND_CID>
46783411

> <PUBCHEM_COMPOUND_CANONICALIZED>
1

> <PUBCHEM_CACTVS_COMPLEXITY>
1410

> <PUBCHEM_CACTVS_HBOND_ACCEPTOR>
13

> <PUBCHEM_CACTVS_HBOND_DONOR>
5

> <PUBCHEM_CACTVS_ROTATABLE_BOND>
7

> <PUBCHEM_CACTVS_SUBSKEYS>
AAADcfB8PAAAAAAAAAAAAAAAAAAAAYIAAAA0aNECAAAAAGDAAAAAGgAACAAAD1SwgAMCCAAABgCIAiDSCAAAAAAgAAAACAAAAEgRFAIAIQAiUAAFgAAPIQPA4PwPgAAAAAAAAADAAAYAADAAAYAADAAAAA==

> <PUBCHEM_IUPAC_OPENEYE_NAME>
3-[(3~{S},5~{R},8~{R},9~{S},10~{S},13~{R},14~{S},17~{R})-3-[(2~{R},4~{R},5~{S})-5-[(2~{S},4~{R},5~{S})-5-[(2~{S},4~{R},5~{S})-4,5-dihydroxy-6-methyl-tetrahydropyran-2-yl]oxy-4-hydroxy-6-methyl-tetrahydropyran-2-yl]oxy-4-hydroxy-6-methyl-tetrahydropyran-2-yl]oxy-14-hydroxy-10,13-dimethyl-1,2,3,4,5,6,7,8,9,11,12,15,16,17-tetradecahydrocyclopenta[a]phenanthren-17-yl]-2~{H}-furan-5-one

> <PUBCHEM_IUPAC_CAS_NAME>
3-[(3~{S},5~{R},8~{R},9~{S},10~{S},13~{R},14~{S},17~{R})-3-[[(2~{R},4~{R},5~{S})-5-[[(2~{S},4~{R},5~{S})-5-[[(2~{S},4~{R},5~{S})-4,5-dihydroxy-6-methyl-2-oxanyl]oxy]-4-hydroxy-6-methyl-2-oxanyl]oxy]-4-hydroxy-6-methyl-2-oxanyl]oxy]-14-hydroxy-10,13-dimethyl-1,2,3,4,5,6,7,8,9,11,12,15,16,17-tetradecahydrocyclopenta[a]phenanthren-17-yl]-2~{H}-furan-5-one

> <PUBCHEM_IUPAC_NAME>
3-[(3~{S},5~{R},8~{R},9~{S},10~{S},13~{R},14~{S},17~{R})-3-[(2~{R},4~{R},5~{S})-5-[(2~{S},4~{R},5~{S})-5-[(2~{S},4~{R},5~{S})-4,5-dihydroxy-6-methyloxan-2-yl]oxy-4-hydroxy-6-methyloxan-2-yl]oxy-4-hydroxy-6-methyloxan-2-yl]oxy-14-hydroxy-10,13-dimethyl-1,2,3,4,5,6,7,8,9,11,12,15,16,17-tetradecahydrocyclopenta[a]phenanthren-17-yl]-2~{H}-furan-5-one

> <PUBCHEM_IUPAC_SYSTEMATIC_NAME>
3-[(3~{S},5~{R},8~{R},9~{S},10~{S},13~{R},14~{S},17~{R})-10,13-dimethyl-3-[(2~{R},4~{R},5~{S})-6-methyl-5-[(2~{S},4~{R},5~{S})-6-methyl-5-[(2~{S},4~{R},5~{S})-6-methyl-4,5-bis(oxidanyl)oxan-2-yl]oxy-4-oxidanyl-oxan-2-yl]oxy-4-oxidanyl-oxan-2-yl]oxy-14-oxidanyl-1,2,3,4,5,6,7,8,9,11,12,15,16,17-tetradecahydrocyclopenta[a]phenanthren-17-yl]-2~{H}-furan-5-one

> <PUBCHEM_IUPAC_TRADITIONAL_NAME>
3-[(3~{S},5~{R},8~{R},9~{S},10~{S},13~{R},14~{S},17~{R})-3-[(2~{R},4~{R},5~{S})-5-[(2~{S},4~{R},5~{S})-5-[(2~{S},4~{R},5~{S})-4,5-dihydroxy-6-methyl-tetrahydropyran-2-yl]oxy-4-hydroxy-6-methyl-tetrahydropyran-2-yl]oxy-4-hydroxy-6-methyl-tetrahydropyran-2-yl]oxy-14-hydroxy-10,13-dimethyl-1,2,3,4,5,6,7,8,9,11,12,15,16,17-tetradecahydrocyclopenta[a]phenanthren-17-yl]-2~{H}-furan-5-one

> <PUBCHEM_IUPAC_INCHI>
InChI=1S/C41H64O13/c1-20-36(46)29(42)16-34(49-20)53-38-22(3)51-35(18-31(38)44)54-37-21(2)50-33(17-30(37)43)52-25-8-11-39(4)24(15-25)6-7-28-27(39)9-12-40(5)26(10-13-41(28,40)47)23-14-32(45)48-19-23/h14,20-22,24-31,33-38,42-44,46-47H,6-13,15-19H2,1-5H3/t20?,21?,22?,24-,25+,26-,27+,28-,29-,30-,31-,33+,34+,35+,36-,37-,38-,39+,40-,41+/m1/s1

> <PUBCHEM_IUPAC_INCHIKEY>
WDJUZGPOPHTGOT-NJHFADPQSA-N

> <PUBCHEM_XLOGP3>
2.3

> <PUBCHEM_EXACT_MASS>
764.435

> <PUBCHEM_MOLECULAR_FORMULA>
C41H64O13

> <PUBCHEM_MOLECULAR_WEIGHT>
764.95

> <PUBCHEM_OPENEYE_CAN_SMILES>
CC1C(C(CC(O1)OC2C(OC(CC2O)OC3C(OC(CC3O)OC4CCC5(C(C4)CCC6C5CCC7(C6(CCC7C8=CC(=O)OC8)O)C)C)C)C)O)O

> <PUBCHEM_OPENEYE_ISO_SMILES>
CC1[C@H]([C@@H](C[C@@H](O1)O[C@H]2[C@@H](C[C@@H](OC2C)O[C@H]3[C@@H](C[C@@H](OC3C)O[C@H]4CC[C@]5([C@@H](C4)CC[C@@H]6[C@@H]5CC[C@]7([C@@]6(CC[C@@H]7C8=CC(=O)OC8)O)C)C)O)O)O)O

> <PUBCHEM_CACTVS_TPSA>
183

> <PUBCHEM_MONOISOTOPIC_WEIGHT>
764.435

> <PUBCHEM_TOTAL_CHARGE>
0

> <PUBCHEM_HEAVY_ATOM_COUNT>
54

> <PUBCHEM_ATOM_DEF_STEREO_COUNT>
17

> <PUBCHEM_ATOM_UDEF_STEREO_COUNT>
3

> <PUBCHEM_BOND_DEF_STEREO_COUNT>
0

> <PUBCHEM_BOND_UDEF_STEREO_COUNT>
0

> <PUBCHEM_ISOTOPIC_ATOM_COUNT>
0

> <PUBCHEM_COMPONENT_COUNT>
1

> <PUBCHEM_CACTVS_TAUTO_COUNT>
-1

> <PUBCHEM_COORDINATE_TYPE>
1
5
255

> <PUBCHEM_BONDANNOTATIONS>
14  1  5
45  10  5
51  12  6
53  13  5
15  55  5
16  56  6
17  29  5
18  30  5
19  57  5
32  2  5
36  2  5
22  33  5
40  42  3
46  48  3
52  54  3
39  6  5
41  7  6
43  7  5
47  9  6
49  9  6

$$$$
637563
  -OEChem-02061913102D

 11 11  0     0  0  0  0  0  0999 V2000
    2.8660   -2.5000    0.0000 O   0  0  0  0  0  0  0  0  0  0  0  0
    2.8660    0.5000    0.0000 C   0  0  0  0  0  0  0  0  0  0  0  0
    2.0000    0.0000    0.0000 C   0  0  0  0  0  0  0  0  0  0  0  0
    3.7320   -0.0000    0.0000 C   0  0  0  0  0  0  0  0  0  0  0  0
    2.8660   -1.5000    0.0000 C   0  0  0  0  0  0  0  0  0  0  0  0
    2.0000   -1.0000    0.0000 C   0  0  0  0  0  0  0  0  0  0  0  0
    3.7320   -1.0000    0.0000 C   0  0  0  0  0  0  0  0  0  0  0  0
    2.8660    1.5000    0.0000 C   0  0  0  0  0  0  0  0  0  0  0  0
    3.7320    2.0000    0.0000 C   0  0  0  0  0  0  0  0  0  0  0  0
    3.7320    3.0000    0.0000 C   0  0  0  0  0  0  0  0  0  0  0  0
    2.0000   -3.0000    0.0000 C   0  0  0  0  0  0  0  0  0  0  0  0
  1  5  1  0  0  0  0
  1 11  1  0  0  0  0
  2  3  2  0  0  0  0
  2  4  1  0  0  0  0
  2  8  1  0  0  0  0
  3  6  1  0  0  0  0
  4  7  2  0  0  0  0
  5  6  2  0  0  0  0
  5  7  1  0  0  0  0
  8  9  2  0  0  0  0
  9 10  1  0  0  0  0
M  END
> <PUBCHEM_COMPOUND_CID>
637563

> <PUBCHEM_COMPOUND_CANONICALIZED>
1

> <PUBCHEM_CACTVS_COMPLEXITY>
121

> <PUBCHEM_CACTVS_HBOND_ACCEPTOR>
1

> <PUBCHEM_CACTVS_HBOND_DONOR>
0

> <PUBCHEM_CACTVS_ROTATABLE_BOND>
2

> <PUBCHEM_CACTVS_SUBSKEYS>
AAADccBwIAAAAAAAAAAAAAAAAAAAAAAAAAAwAAAAAAAAAAABAAAAGgAAAAAADASAmAIyBoAABACAAiBCAAACCAAgIAAIiAAGCIgMJiKEMRqAMCAkwBEIqAeAwAAOIAAAAAAAAABAAAAAAAAAAAAAAAAAAA==

> <PUBCHEM_IUPAC_OPENEYE_NAME>
1-methoxy-4-[(~{E})-prop-1-enyl]benzene

> <PUBCHEM_IUPAC_CAS_NAME>
1-methoxy-4-[(~{E})-prop-1-enyl]benzene

> <PUBCHEM_IUPAC_NAME>
1-methoxy-4-[(~{E})-prop-1-enyl]benzene

> <PUBCHEM_IUPAC_SYSTEMATIC_NAME>
1-methoxy-4-[(~{E})-prop-1-enyl]benzene

> <PUBCHEM_IUPAC_TRADITIONAL_NAME>
1-methoxy-4-[(~{E})-prop-1-enyl]benzene

> <PUBCHEM_IUPAC_INCHI>
InChI=1S/C10H12O/c1-3-4-9-5-7-10(11-2)8-6-9/h3-8H,1-2H3/b4-3+

> <PUBCHEM_IUPAC_INCHIKEY>
RUVINXPYWBROJD-ONEGZZNKSA-N

> <PUBCHEM_XLOGP3>
3.3

> <PUBCHEM_EXACT_MASS>
148.089

> <PUBCHEM_MOLECULAR_FORMULA>
C10H12O

> <PUBCHEM_MOLECULAR_WEIGHT>
148.205

> <PUBCHEM_OPENEYE_CAN_SMILES>
CC=CC1=CC=C(C=C1)OC

> <PUBCHEM_OPENEYE_ISO_SMILES>
C/C=C/C1=CC=C(C=C1)OC

> <PUBCHEM_CACTVS_TPSA>
9.2

> <PUBCHEM_MONOISOTOPIC_WEIGHT>
148.089

> <PUBCHEM_TOTAL_CHARGE>
0

> <PUBCHEM_HEAVY_ATOM_COUNT>
11

> <PUBCHEM_ATOM_DEF_STEREO_COUNT>
0

> <PUBCHEM_ATOM_UDEF_STEREO_COUNT>
0

> <PUBCHEM_BOND_DEF_STEREO_COUNT>
1

> <PUBCHEM_BOND_UDEF_STEREO_COUNT>
0

> <PUBCHEM_ISOTOPIC_ATOM_COUNT>
0

> <PUBCHEM_COMPONENT_COUNT>
1

> <PUBCHEM_CACTVS_TAUTO_COUNT>
-1

> <PUBCHEM_COORDINATE_TYPE>
1
5
255

> <PUBCHEM_BONDANNOTATIONS>
2  3  8
2  4  8
3  6  8
4  7  8
5  6  8
5  7  8

$$$$
5147
  -OEChem-02061913062D

 10 10  0     0  0  0  0  0  0999 V2000
    2.5369   -0.0600    0.0000 O   0  0  0  0  0  0  0  0  0  0  0  0
    3.4030    1.4400    0.0000 O   0  0  0  0  0  0  0  0  0  0  0  0
    5.1350    1.4400    0.0000 N   0  0  0  0  0  0  0  0  0  0  0  0
    4.2690   -0.0600    0.0000 C   0  0  0  0  0  0  0  0  0  0  0  0
    3.4030   -0.5600    0.0000 C   0  0  0  0  0  0  0  0  0  0  0  0
    5.1350   -0.5600    0.0000 C   0  0  0  0  0  0  0  0  0  0  0  0
    3.4030   -1.5600    0.0000 C   0  0  0  0  0  0  0  0  0  0  0  0
    5.1350   -1.5600    0.0000 C   0  0  0  0  0  0  0  0  0  0  0  0
    4.2690   -2.0600    0.0000 C   0  0  0  0  0  0  0  0  0  0  0  0
    4.2690    0.9400    0.0000 C   0  0  0  0  0  0  0  0  0  0  0  0
  1  5  1  0  0  0  0
  2 10  2  0  0  0  0
  3 10  1  0  0  0  0
  4  5  1  0  0  0  0
  4  6  2  0  0  0  0
  4 10  1  0  0  0  0
  5  7  2  0  0  0  0
  6  8  1  0  0  0  0
  7  9  1  0  0  0  0
  8  9  2  0  0  0  0
M  END
> <PUBCHEM_COMPOUND_CID>
5147

> <PUBCHEM_COMPOUND_CANONICALIZED>
1

> <PUBCHEM_CACTVS_COMPLEXITY>
136

> <PUBCHEM_CACTVS_HBOND_ACCEPTOR>
2

> <PUBCHEM_CACTVS_HBOND_DONOR>
2

> <PUBCHEM_CACTVS_ROTATABLE_BOND>
1

> <PUBCHEM_CACTVS_SUBSKEYS>
AAADcYBiMAAAAAAAAAAAAAAAAAAAAAAAAAAwAAAAAAAAAAABAAAAHgAQCAAADASBmAAwBoBAAgCIAiFSEACCAAAkIAAIiAEGDMgIJjaClROAcUBm4BEImYeYyCCOAAAAAAAIAAAAAAAAABAAAAAAAAAAAA==

> <PUBCHEM_IUPAC_OPENEYE_NAME>
2-hydroxybenzamide

> <PUBCHEM_IUPAC_CAS_NAME>
2-hydroxybenzamide

> <PUBCHEM_IUPAC_NAME>
2-hydroxybenzamide

> <PUBCHEM_IUPAC_SYSTEMATIC_NAME>
2-oxidanylbenzamide

> <PUBCHEM_IUPAC_TRADITIONAL_NAME>
salicylamide

> <PUBCHEM_IUPAC_INCHI>
InChI=1S/C7H7NO2/c8-7(10)5-3-1-2-4-6(5)9/h1-4,9H,(H2,8,10)

> <PUBCHEM_IUPAC_INCHIKEY>
SKZKKFZAGNVIMN-UHFFFAOYSA-N

> <PUBCHEM_XLOGP3>
1.3

> <PUBCHEM_EXACT_MASS>
137.048

> <PUBCHEM_MOLECULAR_FORMULA>
C7H7NO2

> <PUBCHEM_MOLECULAR_WEIGHT>
137.138

> <PUBCHEM_OPENEYE_CAN_SMILES>
C1=CC=C(C(=C1)C(=O)N)O

> <PUBCHEM_OPENEYE_ISO_SMILES>
C1=CC=C(C(=C1)C(=O)N)O

> <PUBCHEM_CACTVS_TPSA>
63.3

> <PUBCHEM_MONOISOTOPIC_WEIGHT>
137.048

> <PUBCHEM_TOTAL_CHARGE>
0

> <PUBCHEM_HEAVY_ATOM_COUNT>
10

> <PUBCHEM_ATOM_DEF_STEREO_COUNT>
0

> <PUBCHEM_ATOM_UDEF_STEREO_COUNT>
0

> <PUBCHEM_BOND_DEF_STEREO_COUNT>
0

> <PUBCHEM_BOND_UDEF_STEREO_COUNT>
0

> <PUBCHEM_ISOTOPIC_ATOM_COUNT>
0

> <PUBCHEM_COMPONENT_COUNT>
1

> <PUBCHEM_CACTVS_TAUTO_COUNT>
-1

> <PUBCHEM_COORDINATE_TYPE>
1
5
255

> <PUBCHEM_BONDANNOTATIONS>
4  5  8
4  6  8
5  7  8
6  8  8
7  9  8
8  9  8

$$$$
7501
  -OEChem-02061913072D

  8  8  0     0  0  0  0  0  0999 V2000
    2.8660    0.2500    0.0000 C   0  0  0  0  0  0  0  0  0  0  0  0
    2.0000   -0.2500    0.0000 C   0  0  0  0  0  0  0  0  0  0  0  0
    3.7320   -0.2500    0.0000 C   0  0  0  0  0  0  0  0  0  0  0  0
    2.0000   -1.2500    0.0000 C   0  0  0  0  0  0  0  0  0  0  0  0
    3.7320   -1.2500    0.0000 C   0  0  0  0  0  0  0  0  0  0  0  0
    2.8660   -1.7500    0.0000 C   0  0  0  0  0  0  0  0  0  0  0  0
    2.8660    1.2500    0.0000 C   0  0  0  0  0  0  0  0  0  0  0  0
    3.7320    1.7500    0.0000 C   0  0  0  0  0  0  0  0  0  0  0  0
  1  2  2  0  0  0  0
  1  3  1  0  0  0  0
  1  7  1  0  0  0  0
  2  4  1  0  0  0  0
  3  5  2  0  0  0  0
  4  6  2  0  0  0  0
  5  6  1  0  0  0  0
  7  8  2  0  0  0  0
M  END
> <PUBCHEM_COMPOUND_CID>
7501

> <PUBCHEM_COMPOUND_CANONICALIZED>
1

> <PUBCHEM_CACTVS_COMPLEXITY>
68.1

> <PUBCHEM_CACTVS_HBOND_ACCEPTOR>
0

> <PUBCHEM_CACTVS_HBOND_DONOR>
0

> <PUBCHEM_CACTVS_ROTATABLE_BOND>
1

> <PUBCHEM_CACTVS_SUBSKEYS>
AAADccBwAAAAAAAAAAAAAAAAAAAAAAAAAAAwAAAAAAAAAAABAAAAGAAAAAAADACAGAAwAIAAAACAAiBCAAACAAAgAAAIiAAAAIgIICKAERCAIAAggAAIiAcAgAAOAAAAAAAAAAAAAAAAAAAAAAAAAAAAAA==

> <PUBCHEM_IUPAC_OPENEYE_NAME>
styrene

> <PUBCHEM_IUPAC_CAS_NAME>
styrene

> <PUBCHEM_IUPAC_NAME>
styrene

> <PUBCHEM_IUPAC_SYSTEMATIC_NAME>
ethenylbenzene

> <PUBCHEM_IUPAC_TRADITIONAL_NAME>
styrene

> <PUBCHEM_IUPAC_INCHI>
InChI=1S/C8H8/c1-2-8-6-4-3-5-7-8/h2-7H,1H2

> <PUBCHEM_IUPAC_INCHIKEY>
PPBRXRYQALVLMV-UHFFFAOYSA-N

> <PUBCHEM_XLOGP3>
2.9

> <PUBCHEM_EXACT_MASS>
104.063

> <PUBCHEM_MOLECULAR_FORMULA>
C8H8

> <PUBCHEM_MOLECULAR_WEIGHT>
104.152

> <PUBCHEM_OPENEYE_CAN_SMILES>
C=CC1=CC=CC=C1

> <PUBCHEM_OPENEYE_ISO_SMILES>
C=CC1=CC=CC=C1

> <PUBCHEM_CACTVS_TPSA>
0

> <PUBCHEM_MONOISOTOPIC_WEIGHT>
104.063

> <PUBCHEM_TOTAL_CHARGE>
0

> <PUBCHEM_HEAVY_ATOM_COUNT>
8

> <PUBCHEM_ATOM_DEF_STEREO_COUNT>
0

> <PUBCHEM_ATOM_UDEF_STEREO_COUNT>
0

> <PUBCHEM_BOND_DEF_STEREO_COUNT>
0

> <PUBCHEM_BOND_UDEF_STEREO_COUNT>
0

> <PUBCHEM_ISOTOPIC_ATOM_COUNT>
0

> <PUBCHEM_COMPONENT_COUNT>
1

> <PUBCHEM_CACTVS_TAUTO_COUNT>
-1

> <PUBCHEM_COORDINATE_TYPE>
1
5
255

> <PUBCHEM_BONDANNOTATIONS>
1  2  8
1  3  8
2  4  8
3  5  8
4  6  8
5  6  8

$$$$
9215
  -OEChem-02061913072D

 14 16  0     0  0  0  0  0  0999 V2000
    4.6660    1.0000    0.0000 N   0  0  0  0  0  0  0  0  0  0  0  0
    3.8000   -0.5000    0.0000 C   0  0  0  0  0  0  0  0  0  0  0  0
    5.5321   -0.5000    0.0000 C   0  0  0  0  0  0  0  0  0  0  0  0
    3.8000    0.5000    0.0000 C   0  0  0  0  0  0  0  0  0  0  0  0
    5.5321    0.5000    0.0000 C   0  0  0  0  0  0  0  0  0  0  0  0
    4.6660   -1.0000    0.0000 C   0  0  0  0  0  0  0  0  0  0  0  0
    2.9061   -1.0347    0.0000 C   0  0  0  0  0  0  0  0  0  0  0  0
    6.4260   -1.0347    0.0000 C   0  0  0  0  0  0  0  0  0  0  0  0
    2.9061    1.0347    0.0000 C   0  0  0  0  0  0  0  0  0  0  0  0
    6.4260    1.0347    0.0000 C   0  0  0  0  0  0  0  0  0  0  0  0
    2.0000   -0.5208    0.0000 C   0  0  0  0  0  0  0  0  0  0  0  0
    7.3321   -0.5208    0.0000 C   0  0  0  0  0  0  0  0  0  0  0  0
    2.0000    0.5208    0.0000 C   0  0  0  0  0  0  0  0  0  0  0  0
    7.3321    0.5208    0.0000 C   0  0  0  0  0  0  0  0  0  0  0  0
  1  4  2  0  0  0  0
  1  5  1  0  0  0  0
  2  4  1  0  0  0  0
  2  6  2  0  0  0  0
  2  7  1  0  0  0  0
  3  5  1  0  0  0  0
  3  6  1  0  0  0  0
  3  8  2  0  0  0  0
  4  9  1  0  0  0  0
  5 10  2  0  0  0  0
  7 11  2  0  0  0  0
  8 12  1  0  0  0  0
  9 13  2  0  0  0  0
 10 14  1  0  0  0  0
 11 13  1  0  0  0  0
 12 14  2  0  0  0  0
M  END
> <PUBCHEM_COMPOUND_CID>
9215

> <PUBCHEM_COMPOUND_CANONICALIZED>
1

> <PUBCHEM_CACTVS_COMPLEXITY>
181

> <PUBCHEM_CACTVS_HBOND_ACCEPTOR>
1

> <PUBCHEM_CACTVS_HBOND_DONOR>
0

> <PUBCHEM_CACTVS_ROTATABLE_BOND>
0

> <PUBCHEM_CACTVS_SUBSKEYS>
AAADccByAAAAAAAAAAAAAAAAAAAAAAAAAAA8YIAAAAAAAACx/AAAHAAAAAAADAiBHgAwwPIIEACgAyRiRACCgCAhAiAImCAwZJgIIOLAkZGEIAhggADIyAcQgMAOAAAAAAACAAAAAAAAAAQAAAAAAAAAAA==

> <PUBCHEM_IUPAC_OPENEYE_NAME>
acridine

> <PUBCHEM_IUPAC_CAS_NAME>
acridine

> <PUBCHEM_IUPAC_NAME>
acridine

> <PUBCHEM_IUPAC_SYSTEMATIC_NAME>
acridine

> <PUBCHEM_IUPAC_TRADITIONAL_NAME>
acridine

> <PUBCHEM_IUPAC_INCHI>
InChI=1S/C13H9N/c1-3-7-12-10(5-1)9-11-6-2-4-8-13(11)14-12/h1-9H

> <PUBCHEM_IUPAC_INCHIKEY>
DZBUGLKDJFMEHC-UHFFFAOYSA-N

> <PUBCHEM_XLOGP3>
3.4

> <PUBCHEM_EXACT_MASS>
179.073

> <PUBCHEM_MOLECULAR_FORMULA>
C13H9N

> <PUBCHEM_MOLECULAR_WEIGHT>
179.222

> <PUBCHEM_OPENEYE_CAN_SMILES>
C1=CC=C2C(=C1)C=C3C=CC=CC3=N2

> <PUBCHEM_OPENEYE_ISO_SMILES>
C1=CC=C2C(=C1)C=C3C=CC=CC3=N2

> <PUBCHEM_CACTVS_TPSA>
12.9

> <PUBCHEM_MONOISOTOPIC_WEIGHT>
179.073

> <PUBCHEM_TOTAL_CHARGE>
0

> <PUBCHEM_HEAVY_ATOM_COUNT>
14

> <PUBCHEM_ATOM_DEF_STEREO_COUNT>
0

> <PUBCHEM_ATOM_UDEF_STEREO_COUNT>
0

> <PUBCHEM_BOND_DEF_STEREO_COUNT>
0

> <PUBCHEM_BOND_UDEF_STEREO_COUNT>
0

> <PUBCHEM_ISOTOPIC_ATOM_COUNT>
0

> <PUBCHEM_COMPONENT_COUNT>
1

> <PUBCHEM_CACTVS_TAUTO_COUNT>
-1

> <PUBCHEM_COORDINATE_TYPE>
1
5
255

> <PUBCHEM_BONDANNOTATIONS>
1  4  8
1  5  8
10  14  8
11  13  8
12  14  8
2  4  8
2  6  8
2  7  8
3  5  8
3  6  8
3  8  8
4  9  8
5  10  8
7  11  8
8  12  8
9  13  8

$$$$
7929
  -OEChem-02061913072D

  8  8  0     0  0  0  0  0  0999 V2000
    3.7320    0.5000    0.0000 C   0  0  0  0  0  0  0  0  0  0  0  0
    2.8660   -1.0000    0.0000 C   0  0  0  0  0  0  0  0  0  0  0  0
    2.8660    0.0000    0.0000 C   0  0  0  0  0  0  0  0  0  0  0  0
    4.5981   -0.0000    0.0000 C   0  0  0  0  0  0  0  0  0  0  0  0
    3.7320   -1.5000    0.0000 C   0  0  0  0  0  0  0  0  0  0  0  0
    4.5981   -1.0000    0.0000 C   0  0  0  0  0  0  0  0  0  0  0  0
    3.7320    1.5000    0.0000 C   0  0  0  0  0  0  0  0  0  0  0  0
    2.0000   -1.5000    0.0000 C   0  0  0  0  0  0  0  0  0  0  0  0
  1  3  2  0  0  0  0
  1  4  1  0  0  0  0
  1  7  1  0  0  0  0
  2  3  1  0  0  0  0
  2  5  2  0  0  0  0
  2  8  1  0  0  0  0
  4  6  2  0  0  0  0
  5  6  1  0  0  0  0
M  END
> <PUBCHEM_COMPOUND_CID>
7929

> <PUBCHEM_COMPOUND_CANONICALIZED>
1

> <PUBCHEM_CACTVS_COMPLEXITY>
58.4

> <PUBCHEM_CACTVS_HBOND_ACCEPTOR>
0

> <PUBCHEM_CACTVS_HBOND_DONOR>
0

> <PUBCHEM_CACTVS_ROTATABLE_BOND>
0

> <PUBCHEM_CACTVS_SUBSKEYS>
AAADccBwAAAAAAAAAAAAAAAAAAAAAAAAAAAwAAAAAAAAAAABAAAAGAAAAAAADACAGAAyAIAAAACAAiBCAAACAAAgAAAIiAAAAIgIICKAERCAIAAggAAIiAcAgEAOAAACAAAAAAAAAAQAAAAAAAAAAAAAAA==

> <PUBCHEM_IUPAC_OPENEYE_NAME>
m-xylene

> <PUBCHEM_IUPAC_CAS_NAME>
1,3-xylene

> <PUBCHEM_IUPAC_NAME>
1,3-xylene

> <PUBCHEM_IUPAC_SYSTEMATIC_NAME>
1,3-dimethylbenzene

> <PUBCHEM_IUPAC_TRADITIONAL_NAME>
m-xylene

> <PUBCHEM_IUPAC_INCHI>
InChI=1S/C8H10/c1-7-4-3-5-8(2)6-7/h3-6H,1-2H3

> <PUBCHEM_IUPAC_INCHIKEY>
IVSZLXZYQVIEFR-UHFFFAOYSA-N

> <PUBCHEM_XLOGP3>
3.2

> <PUBCHEM_EXACT_MASS>
106.078

> <PUBCHEM_MOLECULAR_FORMULA>
C8H10

> <PUBCHEM_MOLECULAR_WEIGHT>
106.168

> <PUBCHEM_OPENEYE_CAN_SMILES>
CC1=CC(=CC=C1)C

> <PUBCHEM_OPENEYE_ISO_SMILES>
CC1=CC(=CC=C1)C

> <PUBCHEM_CACTVS_TPSA>
0

> <PUBCHEM_MONOISOTOPIC_WEIGHT>
106.078

> <PUBCHEM_TOTAL_CHARGE>
0

> <PUBCHEM_HEAVY_ATOM_COUNT>
8

> <PUBCHEM_ATOM_DEF_STEREO_COUNT>
0

> <PUBCHEM_ATOM_UDEF_STEREO_COUNT>
0

> <PUBCHEM_BOND_DEF_STEREO_COUNT>
0

> <PUBCHEM_BOND_UDEF_STEREO_COUNT>
0

> <PUBCHEM_ISOTOPIC_ATOM_COUNT>
0

> <PUBCHEM_COMPONENT_COUNT>
1

> <PUBCHEM_CACTVS_TAUTO_COUNT>
-1

> <PUBCHEM_COORDINATE_TYPE>
1
5
255

> <PUBCHEM_BONDANNOTATIONS>
1  3  8
1  4  8
2  3  8
2  5  8
4  6  8
5  6  8

$$$$
7809
  -OEChem-02061913072D

  8  8  0     0  0  0  0  0  0999 V2000
    2.8660    1.0000    0.0000 C   0  0  0  0  0  0  0  0  0  0  0  0
    2.8660   -1.0000    0.0000 C   0  0  0  0  0  0  0  0  0  0  0  0
    3.7320    0.5000    0.0000 C   0  0  0  0  0  0  0  0  0  0  0  0
    3.7320   -0.5000    0.0000 C   0  0  0  0  0  0  0  0  0  0  0  0
    2.0000    0.5000    0.0000 C   0  0  0  0  0  0  0  0  0  0  0  0
    2.0000   -0.5000    0.0000 C   0  0  0  0  0  0  0  0  0  0  0  0
    2.8660   -2.0000    0.0000 C   0  0  0  0  0  0  0  0  0  0  0  0
    2.8660    2.0000    0.0000 C   0  0  0  0  0  0  0  0  0  0  0  0
  1  3  2  0  0  0  0
  1  5  1  0  0  0  0
  1  8  1  0  0  0  0
  2  4  2  0  0  0  0
  2  6  1  0  0  0  0
  2  7  1  0  0  0  0
  3  4  1  0  0  0  0
  5  6  2  0  0  0  0
M  END
> <PUBCHEM_COMPOUND_CID>
7809

> <PUBCHEM_COMPOUND_CANONICALIZED>
1

> <PUBCHEM_CACTVS_COMPLEXITY>
48.4

> <PUBCHEM_CACTVS_HBOND_ACCEPTOR>
0

> <PUBCHEM_CACTVS_HBOND_DONOR>
0

> <PUBCHEM_CACTVS_ROTATABLE_BOND>
0

> <PUBCHEM_CACTVS_SUBSKEYS>
AAADccBwAAAAAAAAAAAAAAAAAAAAAAAAAAAwAAAAAAAAAAABAAAAGAAAAAAADACAGAAyAIAAAACAAiBCAAACAAAgAAAIiAAAAIgIICKAERCAIAAggAAIiAcAgAAOQAAAAAAAAACAAAAAAAAAAAAAAAAAAA==

> <PUBCHEM_IUPAC_OPENEYE_NAME>
p-xylene

> <PUBCHEM_IUPAC_CAS_NAME>
1,4-xylene

> <PUBCHEM_IUPAC_NAME>
1,4-xylene

> <PUBCHEM_IUPAC_SYSTEMATIC_NAME>
1,4-dimethylbenzene

> <PUBCHEM_IUPAC_TRADITIONAL_NAME>
p-xylene

> <PUBCHEM_IUPAC_INCHI>
InChI=1S/C8H10/c1-7-3-5-8(2)6-4-7/h3-6H,1-2H3

> <PUBCHEM_IUPAC_INCHIKEY>
URLKBWYHVLBVBO-UHFFFAOYSA-N

> <PUBCHEM_XLOGP3>
3.2

> <PUBCHEM_EXACT_MASS>
106.078

> <PUBCHEM_MOLECULAR_FORMULA>
C8H10

> <PUBCHEM_MOLECULAR_WEIGHT>
106.168

> <PUBCHEM_OPENEYE_CAN_SMILES>
CC1=CC=C(C=C1)C

> <PUBCHEM_OPENEYE_ISO_SMILES>
CC1=CC=C(C=C1)C

> <PUBCHEM_CACTVS_TPSA>
0

> <PUBCHEM_MONOISOTOPIC_WEIGHT>
106.078

> <PUBCHEM_TOTAL_CHARGE>
0

> <PUBCHEM_HEAVY_ATOM_COUNT>
8

> <PUBCHEM_ATOM_DEF_STEREO_COUNT>
0

> <PUBCHEM_ATOM_UDEF_STEREO_COUNT>
0

> <PUBCHEM_BOND_DEF_STEREO_COUNT>
0

> <PUBCHEM_BOND_UDEF_STEREO_COUNT>
0

> <PUBCHEM_ISOTOPIC_ATOM_COUNT>
0

> <PUBCHEM_COMPONENT_COUNT>
1

> <PUBCHEM_CACTVS_TAUTO_COUNT>
-1

> <PUBCHEM_COORDINATE_TYPE>
1
5
255

> <PUBCHEM_BONDANNOTATIONS>
1  3  8
1  5  8
2  4  8
2  6  8
3  4  8
5  6  8

$$$$
4650
  -OEChem-02061913062D

  8  8  0     0  0  0  0  0  0999 V2000
    2.8660    2.0000    0.0000 O   0  0  0  0  0  0  0  0  0  0  0  0
    2.8660   -2.0000    0.0000 O   0  0  0  0  0  0  0  0  0  0  0  0
    2.8660    1.0000    0.0000 C   0  0  0  0  0  0  0  0  0  0  0  0
    2.8660   -1.0000    0.0000 C   0  0  0  0  0  0  0  0  0  0  0  0
    2.0000    0.5000    0.0000 C   0  0  0  0  0  0  0  0  0  0  0  0
    3.7320    0.5000    0.0000 C   0  0  0  0  0  0  0  0  0  0  0  0
    2.0000   -0.5000    0.0000 C   0  0  0  0  0  0  0  0  0  0  0  0
    3.7320   -0.5000    0.0000 C   0  0  0  0  0  0  0  0  0  0  0  0
  1  3  2  0  0  0  0
  2  4  2  0  0  0  0
  3  5  1  0  0  0  0
  3  6  1  0  0  0  0
  4  7  1  0  0  0  0
  4  8  1  0  0  0  0
  5  7  2  0  0  0  0
  6  8  2  0  0  0  0
M  END
> <PUBCHEM_COMPOUND_CID>
4650

> <PUBCHEM_COMPOUND_CANONICALIZED>
1

> <PUBCHEM_CACTVS_COMPLEXITY>
149

> <PUBCHEM_CACTVS_HBOND_ACCEPTOR>
2

> <PUBCHEM_CACTVS_HBOND_DONOR>
0

> <PUBCHEM_CACTVS_ROTATABLE_BOND>
0

> <PUBCHEM_CACTVS_SUBSKEYS>
AAADcYBgMAAAAAAAAAAAAAAAAAAAAAAAAAAgAAAAAAAAAAAAAAAAGgAAAAAACASAgAAAAAAAAACIAKBSAAAAAAAgAAAICAAAAEgAAAAAAAAAAAAAAAAIAYIAAAAAAAAAAAAAAAAAAAAAAAAAAAAAAAAAAA==

> <PUBCHEM_IUPAC_OPENEYE_NAME>
1,4-benzoquinone

> <PUBCHEM_IUPAC_CAS_NAME>
cyclohexa-2,5-diene-1,4-dione

> <PUBCHEM_IUPAC_NAME>
cyclohexa-2,5-diene-1,4-dione

> <PUBCHEM_IUPAC_SYSTEMATIC_NAME>
cyclohexa-2,5-diene-1,4-dione

> <PUBCHEM_IUPAC_TRADITIONAL_NAME>
p-benzoquinone

> <PUBCHEM_IUPAC_INCHI>
InChI=1S/C6H4O2/c7-5-1-2-6(8)4-3-5/h1-4H

> <PUBCHEM_IUPAC_INCHIKEY>
AZQWKYJCGOJGHM-UHFFFAOYSA-N

> <PUBCHEM_XLOGP3>
0.2

> <PUBCHEM_EXACT_MASS>
108.021

> <PUBCHEM_MOLECULAR_FORMULA>
C6H4O2

> <PUBCHEM_MOLECULAR_WEIGHT>
108.096

> <PUBCHEM_OPENEYE_CAN_SMILES>
C1=CC(=O)C=CC1=O

> <PUBCHEM_OPENEYE_ISO_SMILES>
C1=CC(=O)C=CC1=O

> <PUBCHEM_CACTVS_TPSA>
34.1

> <PUBCHEM_MONOISOTOPIC_WEIGHT>
108.021

> <PUBCHEM_TOTAL_CHARGE>
0

> <PUBCHEM_HEAVY_ATOM_COUNT>
8

> <PUBCHEM_ATOM_DEF_STEREO_COUNT>
0

> <PUBCHEM_ATOM_UDEF_STEREO_COUNT>
0

> <PUBCHEM_BOND_DEF_STEREO_COUNT>
0

> <PUBCHEM_BOND_UDEF_STEREO_COUNT>
0

> <PUBCHEM_ISOTOPIC_ATOM_COUNT>
0

> <PUBCHEM_COMPONENT_COUNT>
1

> <PUBCHEM_CACTVS_TAUTO_COUNT>
-1

> <PUBCHEM_COORDINATE_TYPE>
1
5
255

$$$$
445354
  -OEChem-02061913092D

 21 21  0     0  0  0  0  0  0999 V2000
    8.1962    4.4400    0.0000 O   0  0  0  0  0  0  0  0  0  0  0  0
    3.0000   -3.5600    0.0000 C   0  0  0  0  0  0  0  0  0  0  0  0
    3.0000   -4.5600    0.0000 C   0  0  0  0  0  0  0  0  0  0  0  0
    3.8660   -5.0600    0.0000 C   0  0  0  0  0  0  0  0  0  0  0  0
    3.8660   -3.0600    0.0000 C   0  0  0  0  0  0  0  0  0  0  0  0
    4.7320   -4.5600    0.0000 C   0  0  0  0  0  0  0  0  0  0  0  0
    4.7320   -3.5600    0.0000 C   0  0  0  0  0  0  0  0  0  0  0  0
    2.0000   -3.5600    0.0000 C   0  0  0  0  0  0  0  0  0  0  0  0
    2.5000   -2.6940    0.0000 C   0  0  0  0  0  0  0  0  0  0  0  0
    3.8660   -2.0600    0.0000 C   0  0  0  0  0  0  0  0  0  0  0  0
    5.5981   -3.0600    0.0000 C   0  0  0  0  0  0  0  0  0  0  0  0
    4.7320   -1.5600    0.0000 C   0  0  0  0  0  0  0  0  0  0  0  0
    4.7320   -0.5600    0.0000 C   0  0  0  0  0  0  0  0  0  0  0  0
    3.8660   -0.0600    0.0000 C   0  0  0  0  0  0  0  0  0  0  0  0
    5.5981   -0.0600    0.0000 C   0  0  0  0  0  0  0  0  0  0  0  0
    5.5981    0.9400    0.0000 C   0  0  0  0  0  0  0  0  0  0  0  0
    6.4641    1.4400    0.0000 C   0  0  0  0  0  0  0  0  0  0  0  0
    6.4641    2.4400    0.0000 C   0  0  0  0  0  0  0  0  0  0  0  0
    5.5981    2.9400    0.0000 C   0  0  0  0  0  0  0  0  0  0  0  0
    7.3301    2.9400    0.0000 C   0  0  0  0  0  0  0  0  0  0  0  0
    7.3301    3.9400    0.0000 C   0  0  0  0  0  0  0  0  0  0  0  0
  1 21  1  0  0  0  0
  2  3  1  0  0  0  0
  2  5  1  0  0  0  0
  2  8  1  0  0  0  0
  2  9  1  0  0  0  0
  3  4  1  0  0  0  0
  4  6  1  0  0  0  0
  5  7  2  0  0  0  0
  5 10  1  0  0  0  0
  6  7  1  0  0  0  0
  7 11  1  0  0  0  0
 10 12  2  0  0  0  0
 12 13  1  0  0  0  0
 13 14  1  0  0  0  0
 13 15  2  0  0  0  0
 15 16  1  0  0  0  0
 16 17  2  0  0  0  0
 17 18  1  0  0  0  0
 18 19  1  0  0  0  0
 18 20  2  0  0  0  0
 20 21  1  0  0  0  0
M  END
> <PUBCHEM_COMPOUND_CID>
445354

> <PUBCHEM_COMPOUND_CANONICALIZED>
1

> <PUBCHEM_CACTVS_COMPLEXITY>
496

> <PUBCHEM_CACTVS_HBOND_ACCEPTOR>
1

> <PUBCHEM_CACTVS_HBOND_DONOR>
1

> <PUBCHEM_CACTVS_ROTATABLE_BOND>
5

> <PUBCHEM_CACTVS_SUBSKEYS>
AAADceB4IAAAAAAAAAAAAAAAAAAAAAAAAAAgAAAAAAAAAAAAAAAAGgAACAAADgCggAICAAAAAgCAAiBCAAAAAAAgAAAICAAAAAgIFAIAAQAAEAAAgAAIkAMAgMAPAAAAAAAAAAAAAAAAAAAAAAAAAAAAAA==

> <PUBCHEM_IUPAC_OPENEYE_NAME>
(2~{E},4~{E},6~{E},8~{E})-3,7-dimethyl-9-(2,6,6-trimethylcyclohexen-1-yl)nona-2,4,6,8-tetraen-1-ol

> <PUBCHEM_IUPAC_CAS_NAME>
(2~{E},4~{E},6~{E},8~{E})-3,7-dimethyl-9-(2,6,6-trimethyl-1-cyclohexenyl)-1-nona-2,4,6,8-tetraenol

> <PUBCHEM_IUPAC_NAME>
(2~{E},4~{E},6~{E},8~{E})-3,7-dimethyl-9-(2,6,6-trimethylcyclohexen-1-yl)nona-2,4,6,8-tetraen-1-ol

> <PUBCHEM_IUPAC_SYSTEMATIC_NAME>
(2~{E},4~{E},6~{E},8~{E})-3,7-dimethyl-9-(2,6,6-trimethylcyclohexen-1-yl)nona-2,4,6,8-tetraen-1-ol

> <PUBCHEM_IUPAC_TRADITIONAL_NAME>
(2~{E},4~{E},6~{E},8~{E})-3,7-dimethyl-9-(2,6,6-trimethylcyclohexen-1-yl)nona-2,4,6,8-tetraen-1-ol

> <PUBCHEM_IUPAC_INCHI>
InChI=1S/C20H30O/c1-16(8-6-9-17(2)13-15-21)11-12-19-18(3)10-7-14-20(19,4)5/h6,8-9,11-13,21H,7,10,14-15H2,1-5H3/b9-6+,12-11+,16-8+,17-13+

> <PUBCHEM_IUPAC_INCHIKEY>
FPIPGXGPPPQFEQ-OVSJKPMPSA-N

> <PUBCHEM_XLOGP3>
5.7

> <PUBCHEM_EXACT_MASS>
286.23

> <PUBCHEM_MOLECULAR_FORMULA>
C20H30O

> <PUBCHEM_MOLECULAR_WEIGHT>
286.459

> <PUBCHEM_OPENEYE_CAN_SMILES>
CC1=C(C(CCC1)(C)C)C=CC(=CC=CC(=CCO)C)C

> <PUBCHEM_OPENEYE_ISO_SMILES>
CC1=C(C(CCC1)(C)C)/C=C/C(=C/C=C/C(=C/CO)/C)/C

> <PUBCHEM_CACTVS_TPSA>
20.2

> <PUBCHEM_MONOISOTOPIC_WEIGHT>
286.23

> <PUBCHEM_TOTAL_CHARGE>
0

> <PUBCHEM_HEAVY_ATOM_COUNT>
21

> <PUBCHEM_ATOM_DEF_STEREO_COUNT>
0

> <PUBCHEM_ATOM_UDEF_STEREO_COUNT>
0

> <PUBCHEM_BOND_DEF_STEREO_COUNT>
4

> <PUBCHEM_BOND_UDEF_STEREO_COUNT>
0

> <PUBCHEM_ISOTOPIC_ATOM_COUNT>
0

> <PUBCHEM_COMPONENT_COUNT>
1

> <PUBCHEM_CACTVS_TAUTO_COUNT>
-1

> <PUBCHEM_COORDINATE_TYPE>
1
5
255

$$$$
222528
  -OEChem-02061913062D

 28 31  0     1  0  0  0  0  0999 V2000
    7.0628    1.2008    0.0000 O   0  0  0  0  0  0  0  0  0  0  0  0
    2.5357   -3.3515    0.0000 O   0  0  0  0  0  0  0  0  0  0  0  0
   11.7640    3.2695    0.0000 O   0  0  0  0  0  0  0  0  0  0  0  0
   12.1212    1.5747    0.0000 O   0  0  0  0  0  0  0  0  0  0  0  0
    7.9288   -0.2992    0.0000 C   0  0  1  0  0  0  0  0  0  0  0  0
    7.9288   -1.2992    0.0000 C   0  0  2  0  0  0  0  0  0  0  0  0
    7.0628   -1.7992    0.0000 C   0  0  1  0  0  0  0  0  0  0  0  0
    6.1968   -1.2992    0.0000 C   0  0  1  0  0  0  0  0  0  0  0  0
    5.2868   -1.8060    0.0000 C   0  0  2  0  0  0  0  0  0  0  0  0
    8.8750    0.0055    0.0000 C   0  0  2  0  0  0  0  0  0  0  0  0
    7.0628    0.2008    0.0000 C   0  0  2  0  0  0  0  0  0  0  0  0
    6.1968   -0.2992    0.0000 C   0  0  0  0  0  0  0  0  0  0  0  0
    5.2787   -2.8476    0.0000 C   0  0  2  0  0  0  0  0  0  0  0  0
    8.8750   -1.6039    0.0000 C   0  0  0  0  0  0  0  0  0  0  0  0
    7.0789   -2.8407    0.0000 C   0  0  0  0  0  0  0  0  0  0  0  0
    9.4586   -0.7992    0.0000 C   0  0  0  0  0  0  0  0  0  0  0  0
    6.1808   -3.3685    0.0000 C   0  0  0  0  0  0  0  0  0  0  0  0
    4.3599   -1.2420    0.0000 C   0  0  0  0  0  0  0  0  0  0  0  0
    7.9288    0.7008    0.0000 C   0  0  0  0  0  0  0  0  0  0  0  0
    9.1857    0.9560    0.0000 C   0  0  1  0  0  0  0  0  0  0  0  0
    4.3433   -3.3974    0.0000 C   0  0  0  0  0  0  0  0  0  0  0  0
    5.2945   -0.8061    0.0000 C   0  0  0  0  0  0  0  0  0  0  0  0
    3.4120   -1.7699    0.0000 C   0  0  0  0  0  0  0  0  0  0  0  0
    3.4037   -2.8549    0.0000 C   0  0  1  0  0  0  0  0  0  0  0  0
   10.1642    1.1623    0.0000 C   0  0  0  0  0  0  0  0  0  0  0  0
    8.5179    1.7004    0.0000 C   0  0  0  0  0  0  0  0  0  0  0  0
   10.4749    2.1128    0.0000 C   0  0  0  0  0  0  0  0  0  0  0  0
   11.4534    2.3190    0.0000 C   0  0  0  0  0  0  0  0  0  0  0  0
 11  1  1  6  0  0  0
 24  2  1  6  0  0  0
  3 28  1  0  0  0  0
  4 28  2  0  0  0  0
  5  6  1  0  0  0  0
  5 10  1  0  0  0  0
  5 11  1  0  0  0  0
  5 19  1  1  0  0  0
  6  7  1  0  0  0  0
  6 14  1  0  0  0  0
  7  8  1  0  0  0  0
  7 15  1  0  0  0  0
  8  9  1  0  0  0  0
  8 12  1  0  0  0  0
  9 13  1  0  0  0  0
  9 18  1  0  0  0  0
  9 22  1  1  0  0  0
 10 16  1  0  0  0  0
 10 20  1  0  0  0  0
 11 12  1  0  0  0  0
 13 17  1  0  0  0  0
 13 21  1  0  0  0  0
 14 16  1  0  0  0  0
 15 17  1  0  0  0  0
 18 23  1  0  0  0  0
 20 25  1  0  0  0  0
 20 26  1  6  0  0  0
 21 24  1  0  0  0  0
 23 24  1  0  0  0  0
 25 27  1  0  0  0  0
 27 28  1  0  0  0  0
M  END
> <PUBCHEM_COMPOUND_CID>
222528

> <PUBCHEM_COMPOUND_CANONICALIZED>
1

> <PUBCHEM_CACTVS_COMPLEXITY>
605

> <PUBCHEM_CACTVS_HBOND_ACCEPTOR>
4

> <PUBCHEM_CACTVS_HBOND_DONOR>
3

> <PUBCHEM_CACTVS_ROTATABLE_BOND>
4

> <PUBCHEM_CACTVS_SUBSKEYS>
AAADcfB4OAAAAAAAAAAAAAAAAAAAAYAAAAAwYMAAAAAAAGDAAAAAGgAACAAADxSggAICCAAAAgAIAACQCAAAAAAAAAAAAAEAAAAAEBIAAAAAQAAEAAAAAAGIyPCPgAAAAAAAAADAAAYAADAAAQAACAAAAA==

> <PUBCHEM_IUPAC_OPENEYE_NAME>
(4~{R})-4-[(3~{R},5~{R},8~{R},9~{S},10~{S},12~{S},13~{R},14~{S},17~{R})-3,12-dihydroxy-10,13-dimethyl-2,3,4,5,6,7,8,9,11,12,14,15,16,17-tetradecahydro-1~{H}-cyclopenta[a]phenanthren-17-yl]pentanoic acid

> <PUBCHEM_IUPAC_CAS_NAME>
(4~{R})-4-[(3~{R},5~{R},8~{R},9~{S},10~{S},12~{S},13~{R},14~{S},17~{R})-3,12-dihydroxy-10,13-dimethyl-2,3,4,5,6,7,8,9,11,12,14,15,16,17-tetradecahydro-1~{H}-cyclopenta[a]phenanthren-17-yl]pentanoic acid

> <PUBCHEM_IUPAC_NAME>
(4~{R})-4-[(3~{R},5~{R},8~{R},9~{S},10~{S},12~{S},13~{R},14~{S},17~{R})-3,12-dihydroxy-10,13-dimethyl-2,3,4,5,6,7,8,9,11,12,14,15,16,17-tetradecahydro-1~{H}-cyclopenta[a]phenanthren-17-yl]pentanoic acid

> <PUBCHEM_IUPAC_SYSTEMATIC_NAME>
(4~{R})-4-[(3~{R},5~{R},8~{R},9~{S},10~{S},12~{S},13~{R},14~{S},17~{R})-10,13-dimethyl-3,12-bis(oxidanyl)-2,3,4,5,6,7,8,9,11,12,14,15,16,17-tetradecahydro-1~{H}-cyclopenta[a]phenanthren-17-yl]pentanoic acid

> <PUBCHEM_IUPAC_TRADITIONAL_NAME>
(4~{R})-4-[(3~{R},5~{R},8~{R},9~{S},10~{S},12~{S},13~{R},14~{S},17~{R})-3,12-dihydroxy-10,13-dimethyl-2,3,4,5,6,7,8,9,11,12,14,15,16,17-tetradecahydro-1~{H}-cyclopenta[a]phenanthren-17-yl]valeric acid

> <PUBCHEM_IUPAC_INCHI>
InChI=1S/C24H40O4/c1-14(4-9-22(27)28)18-7-8-19-17-6-5-15-12-16(25)10-11-23(15,2)20(17)13-21(26)24(18,19)3/h14-21,25-26H,4-13H2,1-3H3,(H,27,28)/t14-,15-,16-,17+,18-,19+,20+,21+,23+,24-/m1/s1

> <PUBCHEM_IUPAC_INCHIKEY>
KXGVEGMKQFWNSR-LLQZFEROSA-N

> <PUBCHEM_XLOGP3_AA>
4.9

> <PUBCHEM_EXACT_MASS>
392.293

> <PUBCHEM_MOLECULAR_FORMULA>
C24H40O4

> <PUBCHEM_MOLECULAR_WEIGHT>
392.58

> <PUBCHEM_OPENEYE_CAN_SMILES>
CC(CCC(=O)O)C1CCC2C1(C(CC3C2CCC4C3(CCC(C4)O)C)O)C

> <PUBCHEM_OPENEYE_ISO_SMILES>
C[C@H](CCC(=O)O)[C@H]1CC[C@@H]2[C@@]1([C@H](C[C@H]3[C@H]2CC[C@H]4[C@@]3(CC[C@H](C4)O)C)O)C

> <PUBCHEM_CACTVS_TPSA>
77.8

> <PUBCHEM_MONOISOTOPIC_WEIGHT>
392.293

> <PUBCHEM_TOTAL_CHARGE>
0

> <PUBCHEM_HEAVY_ATOM_COUNT>
28

> <PUBCHEM_ATOM_DEF_STEREO_COUNT>
10

> <PUBCHEM_ATOM_UDEF_STEREO_COUNT>
0

> <PUBCHEM_BOND_DEF_STEREO_COUNT>
0

> <PUBCHEM_BOND_UDEF_STEREO_COUNT>
0

> <PUBCHEM_ISOTOPIC_ATOM_COUNT>
0

> <PUBCHEM_COMPONENT_COUNT>
1

> <PUBCHEM_CACTVS_TAUTO_COUNT>
-1

> <PUBCHEM_COORDINATE_TYPE>
1
5
255

> <PUBCHEM_BONDANNOTATIONS>
11  1  6
10  32  6
13  36  5
24  2  6
20  26  6
5  19  5
6  29  6
7  30  5
8  31  6
9  22  5

$$$$
1054
  -OEChem-02061913062D

 12 12  0     0  0  0  0  0  0999 V2000
    2.5369   -0.0600    0.0000 O   0  0  0  0  0  0  0  0  0  0  0  0
    5.1350    1.4400    0.0000 O   0  0  0  0  0  0  0  0  0  0  0  0
    6.8671   -0.5600    0.0000 O   0  0  0  0  0  0  0  0  0  0  0  0
    4.2690   -2.0600    0.0000 N   0  0  0  0  0  0  0  0  0  0  0  0
    4.2690   -0.0600    0.0000 C   0  0  0  0  0  0  0  0  0  0  0  0
    5.1350   -0.5600    0.0000 C   0  0  0  0  0  0  0  0  0  0  0  0
    3.4030   -0.5600    0.0000 C   0  0  0  0  0  0  0  0  0  0  0  0
    3.4030   -1.5600    0.0000 C   0  0  0  0  0  0  0  0  0  0  0  0
    4.2690    0.9400    0.0000 C   0  0  0  0  0  0  0  0  0  0  0  0
    6.0010   -0.0600    0.0000 C   0  0  0  0  0  0  0  0  0  0  0  0
    5.1350   -1.5600    0.0000 C   0  0  0  0  0  0  0  0  0  0  0  0
    2.5369   -2.0600    0.0000 C   0  0  0  0  0  0  0  0  0  0  0  0
  1  7  1  0  0  0  0
  2  9  1  0  0  0  0
  3 10  1  0  0  0  0
  4  8  2  0  0  0  0
  4 11  1  0  0  0  0
  5  6  1  0  0  0  0
  5  7  2  0  0  0  0
  5  9  1  0  0  0  0
  6 10  1  0  0  0  0
  6 11  2  0  0  0  0
  7  8  1  0  0  0  0
  8 12  1  0  0  0  0
M  END
> <PUBCHEM_COMPOUND_CID>
1054

> <PUBCHEM_COMPOUND_CANONICALIZED>
1

> <PUBCHEM_CACTVS_COMPLEXITY>
142

> <PUBCHEM_CACTVS_HBOND_ACCEPTOR>
4

> <PUBCHEM_CACTVS_HBOND_DONOR>
3

> <PUBCHEM_CACTVS_ROTATABLE_BOND>
2

> <PUBCHEM_CACTVS_SUBSKEYS>
AAADccByMAAAAAAAAAAAAAAAAAAAAAAAAAAsAAAAAAAAAAABgAAAHgAACAAADAzhngYuhpIIEgCgAxRnRASCgCAxYCAA2CA9TJgKN2LSkZOEcAhnwBHY2AfwUAMOgAAAAAAAAAAAAAAAAAAAAAAAAAAAAA==

> <PUBCHEM_IUPAC_OPENEYE_NAME>
4,5-bis(hydroxymethyl)-2-methyl-pyridin-3-ol

> <PUBCHEM_IUPAC_CAS_NAME>
4,5-bis(hydroxymethyl)-2-methyl-3-pyridinol

> <PUBCHEM_IUPAC_NAME>
4,5-bis(hydroxymethyl)-2-methylpyridin-3-ol

> <PUBCHEM_IUPAC_SYSTEMATIC_NAME>
4,5-bis(hydroxymethyl)-2-methyl-pyridin-3-ol

> <PUBCHEM_IUPAC_TRADITIONAL_NAME>
2-methyl-4,5-dimethylol-pyridin-3-ol

> <PUBCHEM_IUPAC_INCHI>
InChI=1S/C8H11NO3/c1-5-8(12)7(4-11)6(3-10)2-9-5/h2,10-12H,3-4H2,1H3

> <PUBCHEM_IUPAC_INCHIKEY>
LXNHXLLTXMVWPM-UHFFFAOYSA-N

> <PUBCHEM_XLOGP3>
-0.8

> <PUBCHEM_EXACT_MASS>
169.074

> <PUBCHEM_MOLECULAR_FORMULA>
C8H11NO3

> <PUBCHEM_MOLECULAR_WEIGHT>
169.18

> <PUBCHEM_OPENEYE_CAN_SMILES>
CC1=NC=C(C(=C1O)CO)CO

> <PUBCHEM_OPENEYE_ISO_SMILES>
CC1=NC=C(C(=C1O)CO)CO

> <PUBCHEM_CACTVS_TPSA>
73.6

> <PUBCHEM_MONOISOTOPIC_WEIGHT>
169.074

> <PUBCHEM_TOTAL_CHARGE>
0

> <PUBCHEM_HEAVY_ATOM_COUNT>
12

> <PUBCHEM_ATOM_DEF_STEREO_COUNT>
0

> <PUBCHEM_ATOM_UDEF_STEREO_COUNT>
0

> <PUBCHEM_BOND_DEF_STEREO_COUNT>
0

> <PUBCHEM_BOND_UDEF_STEREO_COUNT>
0

> <PUBCHEM_ISOTOPIC_ATOM_COUNT>
0

> <PUBCHEM_COMPONENT_COUNT>
1

> <PUBCHEM_CACTVS_TAUTO_COUNT>
-1

> <PUBCHEM_COORDINATE_TYPE>
1
5
255

> <PUBCHEM_BONDANNOTATIONS>
4  11  8
4  8  8
5  6  8
5  7  8
6  11  8
7  8  8

$$$$
71311077
  -OEChem-02061914422D

 29 31  0     1  0  0  0  0  0999 V2000
    5.4641   -4.8465    0.0000 O   0  0  0  0  0  0  0  0  0  0  0  0
    5.4641    1.1535    0.0000 C   0  0  2  0  0  0  0  0  0  0  0  0
    6.4103    1.4582    0.0000 C   0  0  2  0  0  0  0  0  0  0  0  0
    5.4641    0.1535    0.0000 C   0  0  1  0  0  0  0  0  0  0  0  0
    6.9939    0.6535    0.0000 C   0  0  0  0  0  0  0  0  0  0  0  0
    6.4103   -0.1512    0.0000 C   0  0  0  0  0  0  0  0  0  0  0  0
    4.5981    1.6535    0.0000 C   0  0  0  0  0  0  0  0  0  0  0  0
    6.7210    2.4087    0.0000 C   0  0  2  0  0  0  0  0  0  0  0  0
    4.5981   -0.3465    0.0000 C   0  0  0  0  0  0  0  0  0  0  0  0
    5.4641    2.1535    0.0000 C   0  0  0  0  0  0  0  0  0  0  0  0
    3.7320    1.1535    0.0000 C   0  0  0  0  0  0  0  0  0  0  0  0
    3.7320    0.1535    0.0000 C   0  0  0  0  0  0  0  0  0  0  0  0
    6.0531    3.1530    0.0000 C   0  0  0  0  0  0  0  0  0  0  0  0
    7.6995    2.6150    0.0000 C   0  0  0  0  0  0  0  0  0  0  0  0
    4.5981   -1.3465    0.0000 C   0  0  0  0  0  0  0  0  0  0  0  0
    8.0102    3.5655    0.0000 C   0  0  0  0  0  0  0  0  0  0  0  0
    3.7320   -1.8465    0.0000 C   0  0  0  0  0  0  0  0  0  0  0  0
    8.9887    3.7717    0.0000 C   0  0  1  0  0  0  0  0  0  0  0  0
    3.7320   -2.8465    0.0000 C   0  0  0  0  0  0  0  0  0  0  0  0
    9.2993    4.7222    0.0000 C   0  0  0  0  0  0  0  0  0  0  0  0
    4.5981   -3.3465    0.0000 C   0  0  0  0  0  0  0  0  0  0  0  0
    9.6565    3.0274    0.0000 C   0  0  0  0  0  0  0  0  0  0  0  0
    2.8660   -3.3465    0.0000 C   0  0  0  0  0  0  0  0  0  0  0  0
    4.5981   -4.3465    0.0000 C   0  0  2  0  0  0  0  0  0  0  0  0
    2.8660   -4.3465    0.0000 C   0  0  0  0  0  0  0  0  0  0  0  0
    3.7320   -4.8465    0.0000 C   0  0  0  0  0  0  0  0  0  0  0  0
   10.2778    4.9284    0.0000 C   0  0  0  0  0  0  0  0  0  0  0  0
    8.6315    5.4665    0.0000 C   0  0  0  0  0  0  0  0  0  0  0  0
    2.0000   -2.8465    0.0000 C   0  0  0  0  0  0  0  0  0  0  0  0
 24  1  1  1  0  0  0
  2  3  1  0  0  0  0
  2  4  1  0  0  0  0
  2  7  1  0  0  0  0
  2 10  1  1  0  0  0
  3  5  1  0  0  0  0
  3  8  1  0  0  0  0
  4  6  1  0  0  0  0
  4  9  1  0  0  0  0
  5  6  1  0  0  0  0
  7 11  1  0  0  0  0
  8 13  1  6  0  0  0
  8 14  1  0  0  0  0
  9 12  1  0  0  0  0
  9 15  2  0  0  0  0
 11 12  1  0  0  0  0
 14 16  2  3  0  0  0
 15 17  1  0  0  0  0
 16 18  1  0  0  0  0
 17 19  2  0  0  0  0
 18 20  1  0  0  0  0
 18 22  1  1  0  0  0
 19 21  1  0  0  0  0
 19 23  1  0  0  0  0
 20 27  1  0  0  0  0
 20 28  1  0  0  0  0
 21 24  1  0  0  0  0
 23 25  1  0  0  0  0
 23 29  2  0  0  0  0
 24 26  1  0  0  0  0
 25 26  1  0  0  0  0
M  END
> <PUBCHEM_COMPOUND_CID>
71311077

> <PUBCHEM_COMPOUND_CANONICALIZED>
1

> <PUBCHEM_CACTVS_COMPLEXITY>
678

> <PUBCHEM_CACTVS_HBOND_ACCEPTOR>
1

> <PUBCHEM_CACTVS_HBOND_DONOR>
1

> <PUBCHEM_CACTVS_ROTATABLE_BOND>
5

> <PUBCHEM_CACTVS_SUBSKEYS>
AAADcfB4IAAAAAAAAAAAAAAAAAAAAYAAAAAwYAAAAAAAAGAAAAAAGgAACAAADxSggAICAAAAAgCAAiBCAAAAAAAgAAAICAAAAAgIEAIAAQAAQAAEwAAIgAOAwMAPgAAAAAAAAAAAAAAAACAAAQAACAAAAA==

> <PUBCHEM_IUPAC_OPENEYE_NAME>
(1~{S},3~{E})-3-[(2~{E})-2-[(1~{R},3~{a}~{S},7~{a}~{R})-7~{a}-methyl-1-[(1~{R},4~{R})-1,4,5-trimethylhex-2-enyl]-2,3,3~{a},5,6,7-hexahydro-1~{H}-inden-4-ylidene]ethylidene]-4-methylene-cyclohexanol

> <PUBCHEM_IUPAC_CAS_NAME>
(1~{S},3~{E})-3-[(2~{E})-2-[(1~{R},3~{a}~{S},7~{a}~{R})-1-[(2~{R},5~{R})-5,6-dimethylhept-3-en-2-yl]-7~{a}-methyl-2,3,3~{a},5,6,7-hexahydro-1~{H}-inden-4-ylidene]ethylidene]-4-methylene-1-cyclohexanol

> <PUBCHEM_IUPAC_NAME>
(1~{S},3~{E})-3-[(2~{E})-2-[(1~{R},3~{a}~{S},7~{a}~{R})-1-[(2~{R},5~{R})-5,6-dimethylhept-3-en-2-yl]-7~{a}-methyl-2,3,3~{a},5,6,7-hexahydro-1~{H}-inden-4-ylidene]ethylidene]-4-methylidenecyclohexan-1-ol

> <PUBCHEM_IUPAC_SYSTEMATIC_NAME>
(1~{S},3~{E})-3-[(2~{E})-2-[(1~{R},3~{a}~{S},7~{a}~{R})-1-[(2~{R},5~{R})-5,6-dimethylhept-3-en-2-yl]-7~{a}-methyl-2,3,3~{a},5,6,7-hexahydro-1~{H}-inden-4-ylidene]ethylidene]-4-methylidene-cyclohexan-1-ol

> <PUBCHEM_IUPAC_TRADITIONAL_NAME>
(1~{S},3~{E})-3-[(2~{E})-2-[(1~{R},3~{a}~{S},7~{a}~{R})-7~{a}-methyl-1-[(1~{R},4~{R})-1,4,5-trimethylhex-2-enyl]-2,3,3~{a},5,6,7-hexahydro-1~{H}-inden-4-ylidene]ethylidene]-4-methylene-cyclohexanol

> <PUBCHEM_IUPAC_INCHI>
InChI=1S/C28H44O/c1-19(2)20(3)9-10-22(5)26-15-16-27-23(8-7-17-28(26,27)6)12-13-24-18-25(29)14-11-21(24)4/h9-10,12-13,19-20,22,25-27,29H,4,7-8,11,14-18H2,1-3,5-6H3/b10-9?,23-12+,24-13+/t20-,22+,25-,26+,27-,28+/m0/s1

> <PUBCHEM_IUPAC_INCHIKEY>
MECHNRXZTMCUDQ-RVHPUGADSA-N

> <PUBCHEM_XLOGP3_AA>
7.4

> <PUBCHEM_EXACT_MASS>
396.339

> <PUBCHEM_MOLECULAR_FORMULA>
C28H44O

> <PUBCHEM_MOLECULAR_WEIGHT>
396.659

> <PUBCHEM_OPENEYE_CAN_SMILES>
CC(C)C(C)C=CC(C)C1CCC2C1(CCCC2=CC=C3CC(CCC3=C)O)C

> <PUBCHEM_OPENEYE_ISO_SMILES>
C[C@H](C=C[C@H](C)C(C)C)[C@H]1CC[C@@H]\2[C@@]1(CCC/C2=C\C=C\3/C[C@H](CCC3=C)O)C

> <PUBCHEM_CACTVS_TPSA>
20.2

> <PUBCHEM_MONOISOTOPIC_WEIGHT>
396.339

> <PUBCHEM_TOTAL_CHARGE>
0

> <PUBCHEM_HEAVY_ATOM_COUNT>
29

> <PUBCHEM_ATOM_DEF_STEREO_COUNT>
6

> <PUBCHEM_ATOM_UDEF_STEREO_COUNT>
0

> <PUBCHEM_BOND_DEF_STEREO_COUNT>
2

> <PUBCHEM_BOND_UDEF_STEREO_COUNT>
1

> <PUBCHEM_ISOTOPIC_ATOM_COUNT>
0

> <PUBCHEM_COMPONENT_COUNT>
1

> <PUBCHEM_CACTVS_TAUTO_COUNT>
-1

> <PUBCHEM_COORDINATE_TYPE>
1
5
255

> <PUBCHEM_BONDANNOTATIONS>
24  1  5
14  16  1
18  22  5
2  10  5
3  30  6
4  31  6
8  13  6

$$$$
6552009
  -OEChem-02061913372D

 11 12  0     1  0  0  0  0  0999 V2000
    5.4686   -2.1937    0.0000 O   0  0  0  0  0  0  0  0  0  0  0  0
    3.6732   -0.6953    0.0000 C   0  0  2  0  0  0  0  0  0  0  0  0
    4.1510    1.2532    0.0000 C   0  0  0  0  0  0  0  0  0  0  0  0
    3.4144    0.2706    0.0000 C   0  0  1  0  0  0  0  0  0  0  0  0
    5.0460   -1.2874    0.0000 C   0  0  2  0  0  0  0  0  0  0  0  0
    2.2743   -1.2042    0.0000 C   0  0  0  0  0  0  0  0  0  0  0  0
    5.3880   -0.3477    0.0000 C   0  0  0  0  0  0  0  0  0  0  0  0
    2.0155   -0.2382    0.0000 C   0  0  0  0  0  0  0  0  0  0  0  0
    3.9321   -1.6613    0.0000 C   0  0  0  0  0  0  0  0  0  0  0  0
    4.0465    2.2477    0.0000 C   0  0  0  0  0  0  0  0  0  0  0  0
    5.0646    1.6599    0.0000 C   0  0  0  0  0  0  0  0  0  0  0  0
  5  1  1  6  0  0  0
  2  3  1  0  0  0  0
  2  5  1  0  0  0  0
  2  6  1  0  0  0  0
  2  9  1  1  0  0  0
  3  4  1  0  0  0  0
  3 10  1  0  0  0  0
  3 11  1  0  0  0  0
  4  7  1  0  0  0  0
  4  8  1  0  0  0  0
  5  7  1  0  0  0  0
  6  8  1  0  0  0  0
M  END
> <PUBCHEM_COMPOUND_CID>
6552009

> <PUBCHEM_COMPOUND_CANONICALIZED>
1

> <PUBCHEM_CACTVS_COMPLEXITY>
185

> <PUBCHEM_CACTVS_HBOND_ACCEPTOR>
1

> <PUBCHEM_CACTVS_HBOND_DONOR>
1

> <PUBCHEM_CACTVS_ROTATABLE_BOND>
0

> <PUBCHEM_CACTVS_SUBSKEYS>
AAADceBwIAAAAAAAAAAAAAAAAAAAAYMAAAAwAAAAAAAAAAAAAAAAGgAACAAADxSggAICAAAAAgAAAAAAAAAAAAAAAAAAAAAAAAAAEAIAAAAAQAAEAAAAAAGAwPAPgAAAAAAAAACAAAIAABAAAYAADAAAAA==

> <PUBCHEM_IUPAC_OPENEYE_NAME>
(1~{R},2~{S},4~{R})-1,7,7-trimethylnorbornan-2-ol

> <PUBCHEM_IUPAC_CAS_NAME>
(1~{R},2~{S},4~{R})-1,7,7-trimethyl-2-bicyclo[2.2.1]heptanol

> <PUBCHEM_IUPAC_NAME>
(1~{R},2~{S},4~{R})-1,7,7-trimethylbicyclo[2.2.1]heptan-2-ol

> <PUBCHEM_IUPAC_SYSTEMATIC_NAME>
(1~{R},2~{S},4~{R})-1,7,7-trimethylbicyclo[2.2.1]heptan-2-ol

> <PUBCHEM_IUPAC_TRADITIONAL_NAME>
(1~{R},2~{S},4~{R})-1,7,7-trimethylnorbornan-2-ol

> <PUBCHEM_IUPAC_INCHI>
InChI=1S/C10H18O/c1-9(2)7-4-5-10(9,3)8(11)6-7/h7-8,11H,4-6H2,1-3H3/t7-,8+,10+/m1/s1

> <PUBCHEM_IUPAC_INCHIKEY>
DTGKSKDOIYIVQL-WEDXCCLWSA-N

> <PUBCHEM_XLOGP3>
2.7

> <PUBCHEM_EXACT_MASS>
154.136

> <PUBCHEM_MOLECULAR_FORMULA>
C10H18O

> <PUBCHEM_MOLECULAR_WEIGHT>
154.253

> <PUBCHEM_OPENEYE_CAN_SMILES>
CC1(C2CCC1(C(C2)O)C)C

> <PUBCHEM_OPENEYE_ISO_SMILES>
C[C@@]12CC[C@@H](C1(C)C)C[C@@H]2O

> <PUBCHEM_CACTVS_TPSA>
20.2

> <PUBCHEM_MONOISOTOPIC_WEIGHT>
154.136

> <PUBCHEM_TOTAL_CHARGE>
0

> <PUBCHEM_HEAVY_ATOM_COUNT>
11

> <PUBCHEM_ATOM_DEF_STEREO_COUNT>
3

> <PUBCHEM_ATOM_UDEF_STEREO_COUNT>
0

> <PUBCHEM_BOND_DEF_STEREO_COUNT>
0

> <PUBCHEM_BOND_UDEF_STEREO_COUNT>
0

> <PUBCHEM_ISOTOPIC_ATOM_COUNT>
0

> <PUBCHEM_COMPONENT_COUNT>
1

> <PUBCHEM_CACTVS_TAUTO_COUNT>
-1

> <PUBCHEM_COORDINATE_TYPE>
1
5
255

> <PUBCHEM_BONDANNOTATIONS>
5  1  6
2  9  5
4  12  6

$$$$
7148
  -OEChem-02061913072D

 10 10  0     0  0  0  0  0  0999 V2000
    2.0000    1.2500    0.0000 O   0  0  0  0  0  0  0  0  0  0  0  0
    3.7320    1.2500    0.0000 C   0  0  0  0  0  0  0  0  0  0  0  0
    2.8660   -0.2500    0.0000 C   0  0  0  0  0  0  0  0  0  0  0  0
    2.8660    0.7500    0.0000 C   0  0  0  0  0  0  0  0  0  0  0  0
    2.0000   -0.7500    0.0000 C   0  0  0  0  0  0  0  0  0  0  0  0
    3.7320   -0.7500    0.0000 C   0  0  0  0  0  0  0  0  0  0  0  0
    3.7320    2.2500    0.0000 C   0  0  0  0  0  0  0  0  0  0  0  0
    2.0000   -1.7500    0.0000 C   0  0  0  0  0  0  0  0  0  0  0  0
    3.7320   -1.7500    0.0000 C   0  0  0  0  0  0  0  0  0  0  0  0
    2.8660   -2.2500    0.0000 C   0  0  0  0  0  0  0  0  0  0  0  0
  1  4  2  0  0  0  0
  2  4  1  0  0  0  0
  2  7  1  0  0  0  0
  3  4  1  0  0  0  0
  3  5  2  0  0  0  0
  3  6  1  0  0  0  0
  5  8  1  0  0  0  0
  6  9  2  0  0  0  0
  8 10  2  0  0  0  0
  9 10  1  0  0  0  0
M  END
> <PUBCHEM_COMPOUND_CID>
7148

> <PUBCHEM_COMPOUND_CANONICALIZED>
1

> <PUBCHEM_CACTVS_COMPLEXITY>
112

> <PUBCHEM_CACTVS_HBOND_ACCEPTOR>
1

> <PUBCHEM_CACTVS_HBOND_DONOR>
0

> <PUBCHEM_CACTVS_ROTATABLE_BOND>
2

> <PUBCHEM_CACTVS_SUBSKEYS>
AAADccBwIAAAAAAAAAAAAAAAAAAAAAAAAAAwAAAAAAAAAAABAAAAGgAAAAAADASAmAAyAIAAAACIAqBSAAACAAAkAAAIiAEAAMgIIDKAFRCAIQAggAAIiYcIiICOAAAAAAAAAAAAAAAAAAAAAAAAAAAAAA==

> <PUBCHEM_IUPAC_OPENEYE_NAME>
1-phenylpropan-1-one

> <PUBCHEM_IUPAC_CAS_NAME>
1-phenyl-1-propanone

> <PUBCHEM_IUPAC_NAME>
1-phenylpropan-1-one

> <PUBCHEM_IUPAC_SYSTEMATIC_NAME>
1-phenylpropan-1-one

> <PUBCHEM_IUPAC_TRADITIONAL_NAME>
propiophenone

> <PUBCHEM_IUPAC_INCHI>
InChI=1S/C9H10O/c1-2-9(10)8-6-4-3-5-7-8/h3-7H,2H2,1H3

> <PUBCHEM_IUPAC_INCHIKEY>
KRIOVPPHQSLHCZ-UHFFFAOYSA-N

> <PUBCHEM_XLOGP3>
2.2

> <PUBCHEM_EXACT_MASS>
134.073

> <PUBCHEM_MOLECULAR_FORMULA>
C9H10O

> <PUBCHEM_MOLECULAR_WEIGHT>
134.178

> <PUBCHEM_OPENEYE_CAN_SMILES>
CCC(=O)C1=CC=CC=C1

> <PUBCHEM_OPENEYE_ISO_SMILES>
CCC(=O)C1=CC=CC=C1

> <PUBCHEM_CACTVS_TPSA>
17.1

> <PUBCHEM_MONOISOTOPIC_WEIGHT>
134.073

> <PUBCHEM_TOTAL_CHARGE>
0

> <PUBCHEM_HEAVY_ATOM_COUNT>
10

> <PUBCHEM_ATOM_DEF_STEREO_COUNT>
0

> <PUBCHEM_ATOM_UDEF_STEREO_COUNT>
0

> <PUBCHEM_BOND_DEF_STEREO_COUNT>
0

> <PUBCHEM_BOND_UDEF_STEREO_COUNT>
0

> <PUBCHEM_ISOTOPIC_ATOM_COUNT>
0

> <PUBCHEM_COMPONENT_COUNT>
1

> <PUBCHEM_CACTVS_TAUTO_COUNT>
-1

> <PUBCHEM_COORDINATE_TYPE>
1
5
255

> <PUBCHEM_BONDANNOTATIONS>
3  5  8
3  6  8
5  8  8
6  9  8
8  10  8
9  10  8

$$$$
441074
  -OEChem-02061913092D

 24 27  0     1  0  0  0  0  0999 V2000
    5.5320    0.2350    0.0000 O   0  0  0  0  0  0  0  0  0  0  0  0
    2.8680   -1.2408    0.0000 O   0  0  0  0  0  0  0  0  0  0  0  0
    7.9557    1.4507    0.0000 N   0  0  3  0  0  0  0  0  0  0  0  0
    6.3981   -3.2650    0.0000 N   0  0  0  0  0  0  0  0  0  0  0  0
    8.8217    1.9507    0.0000 C   0  0  1  0  0  0  0  0  0  0  0  0
    7.2641    0.2350    0.0000 C   0  0  2  0  0  0  0  0  0  0  0  0
    8.2300   -0.0238    0.0000 C   0  0  0  0  0  0  0  0  0  0  0  0
   10.2110    1.3986    0.0000 C   0  0  2  0  0  0  0  0  0  0  0  0
    8.1923    3.2997    0.0000 C   0  0  0  0  0  0  0  0  0  0  0  0
    9.7884    0.4923    0.0000 C   0  0  0  0  0  0  0  0  0  0  0  0
    7.3263    2.7997    0.0000 C   0  0  0  0  0  0  0  0  0  0  0  0
    6.3981   -0.2650    0.0000 C   0  0  2  0  0  0  0  0  0  0  0  0
   11.1507    1.7407    0.0000 C   0  0  0  0  0  0  0  0  0  0  0  0
    6.3981   -1.2650    0.0000 C   0  0  0  0  0  0  0  0  0  0  0  0
   11.9167    1.0979    0.0000 C   0  0  0  0  0  0  0  0  0  0  0  0
    5.5320   -1.7650    0.0000 C   0  0  0  0  0  0  0  0  0  0  0  0
    7.2641   -1.7650    0.0000 C   0  0  0  0  0  0  0  0  0  0  0  0
    5.5320   -2.7650    0.0000 C   0  0  0  0  0  0  0  0  0  0  0  0
    4.6381   -1.2303    0.0000 C   0  0  0  0  0  0  0  0  0  0  0  0
    7.2641   -2.7650    0.0000 C   0  0  0  0  0  0  0  0  0  0  0  0
    4.6381   -3.2997    0.0000 C   0  0  0  0  0  0  0  0  0  0  0  0
    3.7320   -1.7442    0.0000 C   0  0  0  0  0  0  0  0  0  0  0  0
    3.7320   -2.7858    0.0000 C   0  0  0  0  0  0  0  0  0  0  0  0
    2.0000   -1.7375    0.0000 C   0  0  0  0  0  0  0  0  0  0  0  0
 12  1  1  6  0  0  0
  2 22  1  0  0  0  0
  2 24  1  0  0  0  0
  3  6  1  0  0  0  0
  3 10  1  0  0  0  0
  3 11  1  0  0  0  0
  4 18  2  0  0  0  0
  4 20  1  0  0  0  0
  5  7  1  0  0  0  0
  5  8  1  0  0  0  0
  5  9  1  0  0  0  0
  6  7  1  0  0  0  0
  6 12  1  0  0  0  0
  8 10  1  0  0  0  0
  8 13  1  1  0  0  0
  9 11  1  0  0  0  0
 12 14  1  0  0  0  0
 13 15  2  0  0  0  0
 14 16  2  0  0  0  0
 14 17  1  0  0  0  0
 16 18  1  0  0  0  0
 16 19  1  0  0  0  0
 17 20  2  0  0  0  0
 18 21  1  0  0  0  0
 19 22  2  0  0  0  0
 21 23  2  0  0  0  0
 22 23  1  0  0  0  0
M  END
> <PUBCHEM_COMPOUND_CID>
441074

> <PUBCHEM_COMPOUND_CANONICALIZED>
1

> <PUBCHEM_CACTVS_COMPLEXITY>
457

> <PUBCHEM_CACTVS_HBOND_ACCEPTOR>
4

> <PUBCHEM_CACTVS_HBOND_DONOR>
1

> <PUBCHEM_CACTVS_ROTATABLE_BOND>
4

> <PUBCHEM_CACTVS_SUBSKEYS>
AAADceB7MAAAAAAAAAAAAAAAAAAAAAAAAAA8WLFiAAAAAACx8AAAHgAACAAADTzhngY+xvMIFgCgAzRnRACCiCAxIiAI2CA+bJgONuLEsZuEcChkwBHY+Aew4PwOgEABAAACAAAAgAIAAAQAAAAAAAAAAA==

> <PUBCHEM_IUPAC_OPENEYE_NAME>
(~{S})-(6-methoxy-4-quinolyl)-[(2~{R},4~{S},5~{R})-5-vinylquinuclidin-2-yl]methanol

> <PUBCHEM_IUPAC_CAS_NAME>
(~{S})-[(2~{R},4~{S},5~{R})-5-ethenyl-1-azabicyclo[2.2.2]octan-2-yl]-(6-methoxy-4-quinolinyl)methanol

> <PUBCHEM_IUPAC_NAME>
(~{S})-[(2~{R},4~{S},5~{R})-5-ethenyl-1-azabicyclo[2.2.2]octan-2-yl]-(6-methoxyquinolin-4-yl)methanol

> <PUBCHEM_IUPAC_SYSTEMATIC_NAME>
(~{S})-[(2~{R},4~{S},5~{R})-5-ethenyl-1-azabicyclo[2.2.2]octan-2-yl]-(6-methoxyquinolin-4-yl)methanol

> <PUBCHEM_IUPAC_TRADITIONAL_NAME>
(~{S})-(6-methoxy-4-quinolyl)-[(2~{R},4~{S},5~{R})-5-vinylquinuclidin-2-yl]methanol

> <PUBCHEM_IUPAC_INCHI>
InChI=1S/C20H24N2O2/c1-3-13-12-22-9-7-14(13)10-19(22)20(23)16-6-8-21-18-5-4-15(24-2)11-17(16)18/h3-6,8,11,13-14,19-20,23H,1,7,9-10,12H2,2H3/t13-,14-,19+,20-/m0/s1

> <PUBCHEM_IUPAC_INCHIKEY>
LOUPRKONTZGTKE-LHHVKLHASA-N

> <PUBCHEM_XLOGP3>
2.9

> <PUBCHEM_EXACT_MASS>
324.184

> <PUBCHEM_MOLECULAR_FORMULA>
C20H24N2O2

> <PUBCHEM_MOLECULAR_WEIGHT>
324.424

> <PUBCHEM_OPENEYE_CAN_SMILES>
COC1=CC2=C(C=CN=C2C=C1)C(C3CC4CCN3CC4C=C)O

> <PUBCHEM_OPENEYE_ISO_SMILES>
COC1=CC2=C(C=CN=C2C=C1)[C@@H]([C@H]3C[C@@H]4CCN3C[C@@H]4C=C)O

> <PUBCHEM_CACTVS_TPSA>
45.6

> <PUBCHEM_MONOISOTOPIC_WEIGHT>
324.184

> <PUBCHEM_TOTAL_CHARGE>
0

> <PUBCHEM_HEAVY_ATOM_COUNT>
24

> <PUBCHEM_ATOM_DEF_STEREO_COUNT>
4

> <PUBCHEM_ATOM_UDEF_STEREO_COUNT>
0

> <PUBCHEM_BOND_DEF_STEREO_COUNT>
0

> <PUBCHEM_BOND_UDEF_STEREO_COUNT>
0

> <PUBCHEM_ISOTOPIC_ATOM_COUNT>
0

> <PUBCHEM_COMPONENT_COUNT>
1

> <PUBCHEM_CACTVS_TAUTO_COUNT>
-1

> <PUBCHEM_COORDINATE_TYPE>
1
5
255

> <PUBCHEM_BONDANNOTATIONS>
12  1  6
14  16  8
14  17  8
16  18  8
16  19  8
17  20  8
18  21  8
19  22  8
21  23  8
22  23  8
4  18  8
4  20  8
5  25  5
6  26  5
8  13  5

$$$$
8027
  -OEChem-02061913072D

  5  5  0     0  0  0  0  0  0999 V2000
    2.8090   -0.4594    0.0000 N   0  0  0  0  0  0  0  0  0  0  0  0
    3.6180    0.1284    0.0000 C   0  0  0  0  0  0  0  0  0  0  0  0
    2.0000    0.1284    0.0000 C   0  0  0  0  0  0  0  0  0  0  0  0
    3.3090    1.0794    0.0000 C   0  0  0  0  0  0  0  0  0  0  0  0
    2.3090    1.0794    0.0000 C   0  0  0  0  0  0  0  0  0  0  0  0
  1  2  1  0  0  0  0
  1  3  1  0  0  0  0
  2  4  2  0  0  0  0
  3  5  2  0  0  0  0
  4  5  1  0  0  0  0
M  END
> <PUBCHEM_COMPOUND_CID>
8027

> <PUBCHEM_COMPOUND_CANONICALIZED>
1

> <PUBCHEM_CACTVS_COMPLEXITY>
22.8

> <PUBCHEM_CACTVS_HBOND_ACCEPTOR>
0

> <PUBCHEM_CACTVS_HBOND_DONOR>
1

> <PUBCHEM_CACTVS_ROTATABLE_BOND>
0

> <PUBCHEM_CACTVS_SUBSKEYS>
AAADcYBiAAAAAAAAAAAAAAAAAAAAAWAAAAAAAAAAAAAAAAABgAAAHAAQAAAACADBEgQ8gJLJkACgADBnRACCgCAxAiAI2aA4ZJgIIMBAgYEEAAhAEADAQAAAAAAAAAAAAAAAAAAAAAAAAAAAAAAAAAAAAA==

> <PUBCHEM_IUPAC_OPENEYE_NAME>
pyrrole

> <PUBCHEM_IUPAC_CAS_NAME>
1~{H}-pyrrole

> <PUBCHEM_IUPAC_NAME>
1~{H}-pyrrole

> <PUBCHEM_IUPAC_SYSTEMATIC_NAME>
1~{H}-pyrrole

> <PUBCHEM_IUPAC_TRADITIONAL_NAME>
pyrrole

> <PUBCHEM_IUPAC_INCHI>
InChI=1S/C4H5N/c1-2-4-5-3-1/h1-5H

> <PUBCHEM_IUPAC_INCHIKEY>
KAESVJOAVNADME-UHFFFAOYSA-N

> <PUBCHEM_XLOGP3>
0.7

> <PUBCHEM_EXACT_MASS>
67.042

> <PUBCHEM_MOLECULAR_FORMULA>
C4H5N

> <PUBCHEM_MOLECULAR_WEIGHT>
67.091

> <PUBCHEM_OPENEYE_CAN_SMILES>
C1=CNC=C1

> <PUBCHEM_OPENEYE_ISO_SMILES>
C1=CNC=C1

> <PUBCHEM_CACTVS_TPSA>
15.8

> <PUBCHEM_MONOISOTOPIC_WEIGHT>
67.042

> <PUBCHEM_TOTAL_CHARGE>
0

> <PUBCHEM_HEAVY_ATOM_COUNT>
5

> <PUBCHEM_ATOM_DEF_STEREO_COUNT>
0

> <PUBCHEM_ATOM_UDEF_STEREO_COUNT>
0

> <PUBCHEM_BOND_DEF_STEREO_COUNT>
0

> <PUBCHEM_BOND_UDEF_STEREO_COUNT>
0

> <PUBCHEM_ISOTOPIC_ATOM_COUNT>
0

> <PUBCHEM_COMPONENT_COUNT>
1

> <PUBCHEM_CACTVS_TAUTO_COUNT>
-1

> <PUBCHEM_COORDINATE_TYPE>
1
5
255

> <PUBCHEM_BONDANNOTATIONS>
1  2  8
1  3  8
2  4  8
3  5  8
4  5  8

$$$$
9253
  -OEChem-02061913072D

  5  5  0     0  0  0  0  0  0999 V2000
    2.8090    0.7694    0.0000 C   0  0  0  0  0  0  0  0  0  0  0  0
    2.0000    0.1816    0.0000 C   0  0  0  0  0  0  0  0  0  0  0  0
    3.6180    0.1816    0.0000 C   0  0  0  0  0  0  0  0  0  0  0  0
    2.3090   -0.7694    0.0000 C   0  0  0  0  0  0  0  0  0  0  0  0
    3.3090   -0.7694    0.0000 C   0  0  0  0  0  0  0  0  0  0  0  0
  1  2  1  0  0  0  0
  1  3  1  0  0  0  0
  2  4  1  0  0  0  0
  3  5  1  0  0  0  0
  4  5  1  0  0  0  0
M  END
> <PUBCHEM_COMPOUND_CID>
9253

> <PUBCHEM_COMPOUND_CANONICALIZED>
1

> <PUBCHEM_CACTVS_COMPLEXITY>
11.6

> <PUBCHEM_CACTVS_HBOND_ACCEPTOR>
0

> <PUBCHEM_CACTVS_HBOND_DONOR>
0

> <PUBCHEM_CACTVS_ROTATABLE_BOND>
0

> <PUBCHEM_CACTVS_SUBSKEYS>
AAADccBgAAAAAAAAAAAAAAAAAAAAAYAAAAAAAAAAAAAAAAAAAAAAGAAAAAAACACAAAAAAAAAAAAAAAAAAAAAAAAAAAAAAAAAAAAAAAIAAAAAAAAAAAAAAAAAAAAAAAAAAAAAAAAAAAAAAAAAAAAAAAAAAA==

> <PUBCHEM_IUPAC_OPENEYE_NAME>
cyclopentane

> <PUBCHEM_IUPAC_CAS_NAME>
cyclopentane

> <PUBCHEM_IUPAC_NAME>
cyclopentane

> <PUBCHEM_IUPAC_SYSTEMATIC_NAME>
cyclopentane

> <PUBCHEM_IUPAC_TRADITIONAL_NAME>
cyclopentane

> <PUBCHEM_IUPAC_INCHI>
InChI=1S/C5H10/c1-2-4-5-3-1/h1-5H2

> <PUBCHEM_IUPAC_INCHIKEY>
RGSFGYAAUTVSQA-UHFFFAOYSA-N

> <PUBCHEM_XLOGP3>
3

> <PUBCHEM_EXACT_MASS>
70.078

> <PUBCHEM_MOLECULAR_FORMULA>
C5H10

> <PUBCHEM_MOLECULAR_WEIGHT>
70.135

> <PUBCHEM_OPENEYE_CAN_SMILES>
C1CCCC1

> <PUBCHEM_OPENEYE_ISO_SMILES>
C1CCCC1

> <PUBCHEM_CACTVS_TPSA>
0

> <PUBCHEM_MONOISOTOPIC_WEIGHT>
70.078

> <PUBCHEM_TOTAL_CHARGE>
0

> <PUBCHEM_HEAVY_ATOM_COUNT>
5

> <PUBCHEM_ATOM_DEF_STEREO_COUNT>
0

> <PUBCHEM_ATOM_UDEF_STEREO_COUNT>
0

> <PUBCHEM_BOND_DEF_STEREO_COUNT>
0

> <PUBCHEM_BOND_UDEF_STEREO_COUNT>
0

> <PUBCHEM_ISOTOPIC_ATOM_COUNT>
0

> <PUBCHEM_COMPONENT_COUNT>
1

> <PUBCHEM_CACTVS_TAUTO_COUNT>
-1

> <PUBCHEM_COORDINATE_TYPE>
1
5
255

$$$$
7953
  -OEChem-02061913072D

  9  9  0     0  0  0  0  0  0999 V2000
    3.7320   -1.5000    0.0000 N   0  0  0  0  0  0  0  0  0  0  0  0
    3.7320    0.5000    0.0000 C   0  0  0  0  0  0  0  0  0  0  0  0
    2.8660   -1.0000    0.0000 C   0  0  0  0  0  0  0  0  0  0  0  0
    4.5981   -1.0000    0.0000 C   0  0  0  0  0  0  0  0  0  0  0  0
    2.8660   -0.0000    0.0000 C   0  0  0  0  0  0  0  0  0  0  0  0
    4.5981    0.0000    0.0000 C   0  0  0  0  0  0  0  0  0  0  0  0
    3.7320    1.5000    0.0000 C   0  0  0  0  0  0  0  0  0  0  0  0
    2.0000   -1.5000    0.0000 C   0  0  0  0  0  0  0  0  0  0  0  0
    5.4641   -1.5000    0.0000 C   0  0  0  0  0  0  0  0  0  0  0  0
  1  3  2  0  0  0  0
  1  4  1  0  0  0  0
  2  5  2  0  0  0  0
  2  6  1  0  0  0  0
  2  7  1  0  0  0  0
  3  5  1  0  0  0  0
  3  8  1  0  0  0  0
  4  6  2  0  0  0  0
  4  9  1  0  0  0  0
M  END
> <PUBCHEM_COMPOUND_CID>
7953

> <PUBCHEM_COMPOUND_CANONICALIZED>
1

> <PUBCHEM_CACTVS_COMPLEXITY>
80.6

> <PUBCHEM_CACTVS_HBOND_ACCEPTOR>
1

> <PUBCHEM_CACTVS_HBOND_DONOR>
0

> <PUBCHEM_CACTVS_ROTATABLE_BOND>
0

> <PUBCHEM_CACTVS_SUBSKEYS>
AAADccByAAAAAAAAAAAAAAAAAAAAAAAAAAAsAAAAAAAAAAABgAAAHAAAAAAADAiBHgAygJIIEACgAyRiRACCgCAhAiAAmCAwZJgIIGLAkZGEIAhggADIyAcQgAAOAAAAAAAAAAAAAAAAAAAAAAAAAAAAAA==

> <PUBCHEM_IUPAC_OPENEYE_NAME>
2,4,6-trimethylpyridine

> <PUBCHEM_IUPAC_CAS_NAME>
2,4,6-trimethylpyridine

> <PUBCHEM_IUPAC_NAME>
2,4,6-trimethylpyridine

> <PUBCHEM_IUPAC_SYSTEMATIC_NAME>
2,4,6-trimethylpyridine

> <PUBCHEM_IUPAC_TRADITIONAL_NAME>
$g-collidine

> <PUBCHEM_IUPAC_INCHI>
InChI=1S/C8H11N/c1-6-4-7(2)9-8(3)5-6/h4-5H,1-3H3

> <PUBCHEM_IUPAC_INCHIKEY>
BWZVCCNYKMEVEX-UHFFFAOYSA-N

> <PUBCHEM_XLOGP3>
1.9

> <PUBCHEM_EXACT_MASS>
121.089

> <PUBCHEM_MOLECULAR_FORMULA>
C8H11N

> <PUBCHEM_MOLECULAR_WEIGHT>
121.183

> <PUBCHEM_OPENEYE_CAN_SMILES>
CC1=CC(=NC(=C1)C)C

> <PUBCHEM_OPENEYE_ISO_SMILES>
CC1=CC(=NC(=C1)C)C

> <PUBCHEM_CACTVS_TPSA>
12.9

> <PUBCHEM_MONOISOTOPIC_WEIGHT>
121.089

> <PUBCHEM_TOTAL_CHARGE>
0

> <PUBCHEM_HEAVY_ATOM_COUNT>
9

> <PUBCHEM_ATOM_DEF_STEREO_COUNT>
0

> <PUBCHEM_ATOM_UDEF_STEREO_COUNT>
0

> <PUBCHEM_BOND_DEF_STEREO_COUNT>
0

> <PUBCHEM_BOND_UDEF_STEREO_COUNT>
0

> <PUBCHEM_ISOTOPIC_ATOM_COUNT>
0

> <PUBCHEM_COMPONENT_COUNT>
1

> <PUBCHEM_CACTVS_TAUTO_COUNT>
-1

> <PUBCHEM_COORDINATE_TYPE>
1
5
255

> <PUBCHEM_BONDANNOTATIONS>
1  3  8
1  4  8
2  5  8
2  6  8
3  5  8
4  6  8

$$$$
15558252
  -OEChem-02061913532D

 54 61  0     1  0  0  0  0  0999 V2000
   18.3182   -1.3888    0.0000 O   0  0  0  0  0  0  0  0  0  0  0  0
   12.9292   -2.4619    0.0000 O   0  0  0  0  0  0  0  0  0  0  0  0
   19.5591    3.4894    0.0000 O   0  0  0  0  0  0  0  0  0  0  0  0
   12.0632   -0.9619    0.0000 O   0  0  0  0  0  0  0  0  0  0  0  0
   21.3186    3.7719    0.0000 O   0  0  0  0  0  0  0  0  0  0  0  0
    9.4651   -2.4619    0.0000 O   0  0  0  0  0  0  0  0  0  0  0  0
    9.4651   -0.4619    0.0000 O   0  0  0  0  0  0  0  0  0  0  0  0
    7.7331   -0.4619    0.0000 O   0  0  0  0  0  0  0  0  0  0  0  0
    6.0010   -2.4619    0.0000 O   0  0  0  0  0  0  0  0  0  0  0  0
    7.7331   -3.4619    0.0000 O   0  0  0  0  0  0  0  0  0  0  0  0
    4.2690   -2.4619    0.0000 O   0  0  0  0  0  0  0  0  0  0  0  0
    4.2690    0.5381    0.0000 O   0  0  0  0  0  0  0  0  0  0  0  0
    2.5369   -0.4619    0.0000 O   0  0  0  0  0  0  0  0  0  0  0  0
   18.3144   -0.3888    0.0000 C   0  0  1  0  0  0  0  0  0  0  0  0
   17.4503   -0.8921    0.0000 C   0  0  2  0  0  0  0  0  0  0  0  0
   16.5823   -0.3954    0.0000 C   0  0  1  0  0  0  0  0  0  0  0  0
   18.3105    0.6112    0.0000 C   0  0  2  0  0  0  0  0  0  0  0  0
   15.6743   -0.9058    0.0000 C   0  0  1  0  0  0  0  0  0  0  0  0
   15.6703   -1.9474    0.0000 C   0  0  2  0  0  0  0  0  0  0  0  0
   16.5785    0.6046    0.0000 C   0  0  0  0  0  0  0  0  0  0  0  0
   17.4426    1.1079    0.0000 C   0  0  0  0  0  0  0  0  0  0  0  0
   19.2556    0.9196    0.0000 C   0  0  1  0  0  0  0  0  0  0  0  0
   17.4704   -1.9335    0.0000 C   0  0  0  0  0  0  0  0  0  0  0  0
   19.2618   -0.6898    0.0000 C   0  0  0  0  0  0  0  0  0  0  0  0
   16.5744   -2.4647    0.0000 C   0  0  0  0  0  0  0  0  0  0  0  0
   19.8423    0.1171    0.0000 C   0  0  0  0  0  0  0  0  0  0  0  0
   14.7453   -0.3453    0.0000 C   0  0  0  0  0  0  0  0  0  0  0  0
   14.7370   -2.5007    0.0000 C   0  0  0  0  0  0  0  0  0  0  0  0
   18.3067    1.6112    0.0000 C   0  0  0  0  0  0  0  0  0  0  0  0
   15.6782    0.0942    0.0000 C   0  0  0  0  0  0  0  0  0  0  0  0
   13.7994   -0.8769    0.0000 C   0  0  0  0  0  0  0  0  0  0  0  0
   13.7953   -1.9619    0.0000 C   0  0  2  0  0  0  0  0  0  0  0  0
   19.5626    1.8713    0.0000 C   0  0  0  0  0  0  0  0  0  0  0  0
   18.9731    2.6791    0.0000 C   0  0  0  0  0  0  0  0  0  0  0  0
   20.5130    2.1824    0.0000 C   0  0  0  0  0  0  0  0  0  0  0  0
   12.0632   -1.9619    0.0000 C   0  0  2  0  0  0  0  0  0  0  0  0
   20.5108    3.1824    0.0000 C   0  0  0  0  0  0  0  0  0  0  0  0
   11.1972   -2.4619    0.0000 C   0  0  0  0  0  0  0  0  0  0  0  0
   10.3312   -1.9619    0.0000 C   0  0  1  0  0  0  0  0  0  0  0  0
   11.1972   -0.4619    0.0000 C   0  0  1  0  0  0  0  0  0  0  0  0
   10.3312   -0.9619    0.0000 C   0  0  2  0  0  0  0  0  0  0  0  0
   11.1972    0.5381    0.0000 C   0  0  0  0  0  0  0  0  0  0  0  0
    8.5991   -0.9619    0.0000 C   0  0  1  0  0  0  0  0  0  0  0  0
    8.5991   -1.9619    0.0000 C   0  0  0  0  0  0  0  0  0  0  0  0
    7.7331   -2.4619    0.0000 C   0  0  1  0  0  0  0  0  0  0  0  0
    6.8671   -0.9619    0.0000 C   0  0  1  0  0  0  0  0  0  0  0  0
    6.8671   -1.9619    0.0000 C   0  0  2  0  0  0  0  0  0  0  0  0
    6.0010   -0.4619    0.0000 C   0  0  0  0  0  0  0  0  0  0  0  0
    5.1350   -1.9619    0.0000 C   0  0  1  0  0  0  0  0  0  0  0  0
    5.1350   -0.9619    0.0000 C   0  0  0  0  0  0  0  0  0  0  0  0
    4.2690   -0.4619    0.0000 C   0  0  1  0  0  0  0  0  0  0  0  0
    3.4030   -1.9619    0.0000 C   0  0  1  0  0  0  0  0  0  0  0  0
    3.4030   -0.9619    0.0000 C   0  0  2  0  0  0  0  0  0  0  0  0
    2.5369   -2.4619    0.0000 C   0  0  0  0  0  0  0  0  0  0  0  0
 14  1  1  1  0  0  0
 32  2  1  1  0  0  0
 36  2  1  1  0  0  0
  3 34  1  0  0  0  0
  3 37  1  0  0  0  0
  4 36  1  0  0  0  0
  4 40  1  0  0  0  0
  5 37  2  0  0  0  0
 39  6  1  6  0  0  0
 41  7  1  1  0  0  0
 43  7  1  6  0  0  0
  8 43  1  0  0  0  0
  8 46  1  0  0  0  0
 47  9  1  1  0  0  0
 49  9  1  1  0  0  0
 45 10  1  6  0  0  0
 11 49  1  0  0  0  0
 11 52  1  0  0  0  0
 51 12  1  1  0  0  0
 53 13  1  6  0  0  0
 14 15  1  0  0  0  0
 14 17  1  0  0  0  0
 14 24  1  0  0  0  0
 15 16  1  0  0  0  0
 15 23  1  0  0  0  0
 16 18  1  0  0  0  0
 16 20  1  0  0  0  0
 17 21  1  0  0  0  0
 17 22  1  0  0  0  0
 17 29  1  1  0  0  0
 18 19  1  0  0  0  0
 18 27  1  0  0  0  0
 18 30  1  6  0  0  0
 19 25  1  0  0  0  0
 19 28  1  0  0  0  0
 20 21  1  0  0  0  0
 22 26  1  0  0  0  0
 22 33  1  6  0  0  0
 23 25  1  0  0  0  0
 24 26  1  0  0  0  0
 27 31  1  0  0  0  0
 28 32  1  0  0  0  0
 31 32  1  0  0  0  0
 33 34  1  0  0  0  0
 33 35  2  0  0  0  0
 35 37  1  0  0  0  0
 36 38  1  0  0  0  0
 38 39  1  0  0  0  0
 39 41  1  0  0  0  0
 40 41  1  0  0  0  0
 40 42  1  1  0  0  0
 43 44  1  0  0  0  0
 44 45  1  0  0  0  0
 45 47  1  0  0  0  0
 46 47  1  0  0  0  0
 46 48  1  1  0  0  0
 49 50  1  0  0  0  0
 50 51  1  0  0  0  0
 51 53  1  0  0  0  0
 52 53  1  0  0  0  0
 52 54  1  6  0  0  0
M  END
> <PUBCHEM_COMPOUND_CID>
15558252

> <PUBCHEM_COMPOUND_CANONICALIZED>
1

> <PUBCHEM_CACTVS_COMPLEXITY>
1410

> <PUBCHEM_CACTVS_HBOND_ACCEPTOR>
13

> <PUBCHEM_CACTVS_HBOND_DONOR>
5

> <PUBCHEM_CACTVS_ROTATABLE_BOND>
7

> <PUBCHEM_CACTVS_SUBSKEYS>
AAADcfB8PAAAAAAAAAAAAAAAAAAAAYIAAAA0aNECAAAAAGDAAAAAGgAACAAAD1SwgAMCCAAABgCIAiDSCAAAAAAgAAAACAAAAEgRFAIAIQAiUAAFgAAPIQPA4PwPgAAAAAAAAADAAAYAADAAAYAADAAAAA==

> <PUBCHEM_IUPAC_OPENEYE_NAME>
3-[(3~{S},5~{R},8~{S},9~{S},10~{R},13~{R},14~{S},17~{S})-3-[(2~{R},4~{S},5~{R},6~{R})-5-[(2~{R},4~{S},5~{R},6~{R})-5-[(2~{R},4~{S},5~{R},6~{R})-4,5-dihydroxy-6-methyl-tetrahydropyran-2-yl]oxy-4-hydroxy-6-methyl-tetrahydropyran-2-yl]oxy-4-hydroxy-6-methyl-tetrahydropyran-2-yl]oxy-14-hydroxy-10,13-dimethyl-1,2,3,4,5,6,7,8,9,11,12,15,16,17-tetradecahydrocyclopenta[a]phenanthren-17-yl]-2~{H}-furan-5-one

> <PUBCHEM_IUPAC_CAS_NAME>
3-[(3~{S},5~{R},8~{S},9~{S},10~{R},13~{R},14~{S},17~{S})-3-[[(2~{R},4~{S},5~{R},6~{R})-5-[[(2~{R},4~{S},5~{R},6~{R})-5-[[(2~{R},4~{S},5~{R},6~{R})-4,5-dihydroxy-6-methyl-2-oxanyl]oxy]-4-hydroxy-6-methyl-2-oxanyl]oxy]-4-hydroxy-6-methyl-2-oxanyl]oxy]-14-hydroxy-10,13-dimethyl-1,2,3,4,5,6,7,8,9,11,12,15,16,17-tetradecahydrocyclopenta[a]phenanthren-17-yl]-2~{H}-furan-5-one

> <PUBCHEM_IUPAC_NAME>
3-[(3~{S},5~{R},8~{S},9~{S},10~{R},13~{R},14~{S},17~{S})-3-[(2~{R},4~{S},5~{R},6~{R})-5-[(2~{R},4~{S},5~{R},6~{R})-5-[(2~{R},4~{S},5~{R},6~{R})-4,5-dihydroxy-6-methyloxan-2-yl]oxy-4-hydroxy-6-methyloxan-2-yl]oxy-4-hydroxy-6-methyloxan-2-yl]oxy-14-hydroxy-10,13-dimethyl-1,2,3,4,5,6,7,8,9,11,12,15,16,17-tetradecahydrocyclopenta[a]phenanthren-17-yl]-2~{H}-furan-5-one

> <PUBCHEM_IUPAC_SYSTEMATIC_NAME>
3-[(3~{S},5~{R},8~{S},9~{S},10~{R},13~{R},14~{S},17~{S})-10,13-dimethyl-3-[(2~{R},4~{S},5~{R},6~{R})-6-methyl-5-[(2~{R},4~{S},5~{R},6~{R})-6-methyl-5-[(2~{R},4~{S},5~{R},6~{R})-6-methyl-4,5-bis(oxidanyl)oxan-2-yl]oxy-4-oxidanyl-oxan-2-yl]oxy-4-oxidanyl-oxan-2-yl]oxy-14-oxidanyl-1,2,3,4,5,6,7,8,9,11,12,15,16,17-tetradecahydrocyclopenta[a]phenanthren-17-yl]-2~{H}-furan-5-one

> <PUBCHEM_IUPAC_TRADITIONAL_NAME>
3-[(3~{S},5~{R},8~{S},9~{S},10~{R},13~{R},14~{S},17~{S})-3-[(2~{R},4~{S},5~{R},6~{R})-5-[(2~{R},4~{S},5~{R},6~{R})-5-[(2~{R},4~{S},5~{R},6~{R})-4,5-dihydroxy-6-methyl-tetrahydropyran-2-yl]oxy-4-hydroxy-6-methyl-tetrahydropyran-2-yl]oxy-4-hydroxy-6-methyl-tetrahydropyran-2-yl]oxy-14-hydroxy-10,13-dimethyl-1,2,3,4,5,6,7,8,9,11,12,15,16,17-tetradecahydrocyclopenta[a]phenanthren-17-yl]-2~{H}-furan-5-one

> <PUBCHEM_IUPAC_INCHI>
InChI=1S/C41H64O13/c1-20-36(46)29(42)16-34(49-20)53-38-22(3)51-35(18-31(38)44)54-37-21(2)50-33(17-30(37)43)52-25-8-11-39(4)24(15-25)6-7-28-27(39)9-12-40(5)26(10-13-41(28,40)47)23-14-32(45)48-19-23/h14,20-22,24-31,33-38,42-44,46-47H,6-13,15-19H2,1-5H3/t20-,21-,22-,24-,25+,26+,27+,28+,29+,30+,31+,33+,34-,35-,36+,37+,38+,39-,40-,41+/m1/s1

> <PUBCHEM_IUPAC_INCHIKEY>
WDJUZGPOPHTGOT-CJCOGRRXSA-N

> <PUBCHEM_XLOGP3>
2.3

> <PUBCHEM_EXACT_MASS>
764.435

> <PUBCHEM_MOLECULAR_FORMULA>
C41H64O13

> <PUBCHEM_MOLECULAR_WEIGHT>
764.95

> <PUBCHEM_OPENEYE_CAN_SMILES>
CC1C(C(CC(O1)OC2C(OC(CC2O)OC3C(OC(CC3O)OC4CCC5(C(C4)CCC6C5CCC7(C6(CCC7C8=CC(=O)OC8)O)C)C)C)C)O)O

> <PUBCHEM_OPENEYE_ISO_SMILES>
C[C@@H]1[C@@H]([C@H](C[C@H](O1)O[C@H]2[C@H](O[C@@H](C[C@@H]2O)O[C@H]3[C@H](O[C@H](C[C@@H]3O)O[C@H]4CC[C@@]5([C@@H](C4)CC[C@H]6[C@@H]5CC[C@]7([C@@]6(CC[C@H]7C8=CC(=O)OC8)O)C)C)C)C)O)O

> <PUBCHEM_CACTVS_TPSA>
183

> <PUBCHEM_MONOISOTOPIC_WEIGHT>
764.435

> <PUBCHEM_TOTAL_CHARGE>
0

> <PUBCHEM_HEAVY_ATOM_COUNT>
54

> <PUBCHEM_ATOM_DEF_STEREO_COUNT>
20

> <PUBCHEM_ATOM_UDEF_STEREO_COUNT>
0

> <PUBCHEM_BOND_DEF_STEREO_COUNT>
0

> <PUBCHEM_BOND_UDEF_STEREO_COUNT>
0

> <PUBCHEM_ISOTOPIC_ATOM_COUNT>
0

> <PUBCHEM_COMPONENT_COUNT>
1

> <PUBCHEM_CACTVS_TAUTO_COUNT>
-1

> <PUBCHEM_COORDINATE_TYPE>
1
5
255

> <PUBCHEM_BONDANNOTATIONS>
14  1  5
45  10  6
51  12  5
53  13  6
15  55  6
16  56  6
17  29  5
18  30  6
19  57  5
32  2  5
36  2  5
22  33  6
40  42  5
46  48  5
52  54  6
39  6  6
41  7  5
43  7  6
47  9  5
49  9  5

$$$$
31268
  -OEChem-02061913062D

  5  5  0     0  0  0  0  0  0999 V2000
    2.8090   -0.4594    0.0000 N   0  0  0  0  0  0  0  0  0  0  0  0
    3.3090    1.0794    0.0000 C   0  0  0  0  0  0  0  0  0  0  0  0
    2.3090    1.0794    0.0000 C   0  0  0  0  0  0  0  0  0  0  0  0
    3.6180    0.1284    0.0000 C   0  0  0  0  0  0  0  0  0  0  0  0
    2.0000    0.1284    0.0000 C   0  0  0  0  0  0  0  0  0  0  0  0
  1  4  1  0  0  0  0
  1  5  1  0  0  0  0
  2  3  1  0  0  0  0
  2  4  1  0  0  0  0
  3  5  1  0  0  0  0
M  END
> <PUBCHEM_COMPOUND_CID>
31268

> <PUBCHEM_COMPOUND_CANONICALIZED>
1

> <PUBCHEM_CACTVS_COMPLEXITY>
22.8

> <PUBCHEM_CACTVS_HBOND_ACCEPTOR>
1

> <PUBCHEM_CACTVS_HBOND_DONOR>
1

> <PUBCHEM_CACTVS_ROTATABLE_BOND>
0

> <PUBCHEM_CACTVS_SUBSKEYS>
AAADccBiAAAAAAAAAAAAAAAAAAAAAWAAAAAAAAAAAAAAAAAAAAAAHAAQAAAACADBAAQAAALAAAAAAAAAAAAAAAAAAAAAAIAIAAAAAAAAgAAEAAAAEACAAAAAAAAAAAAAAAAAAAAAAAAAAAAAAAAAAAAAAA==

> <PUBCHEM_IUPAC_OPENEYE_NAME>
pyrrolidine

> <PUBCHEM_IUPAC_CAS_NAME>
pyrrolidine

> <PUBCHEM_IUPAC_NAME>
pyrrolidine

> <PUBCHEM_IUPAC_SYSTEMATIC_NAME>
pyrrolidine

> <PUBCHEM_IUPAC_TRADITIONAL_NAME>
pyrrolidine

> <PUBCHEM_IUPAC_INCHI>
InChI=1S/C4H9N/c1-2-4-5-3-1/h5H,1-4H2

> <PUBCHEM_IUPAC_INCHIKEY>
RWRDLPDLKQPQOW-UHFFFAOYSA-N

> <PUBCHEM_XLOGP3>
0.5

> <PUBCHEM_EXACT_MASS>
71.073

> <PUBCHEM_MOLECULAR_FORMULA>
C4H9N

> <PUBCHEM_MOLECULAR_WEIGHT>
71.123

> <PUBCHEM_OPENEYE_CAN_SMILES>
C1CCNC1

> <PUBCHEM_OPENEYE_ISO_SMILES>
C1CCNC1

> <PUBCHEM_CACTVS_TPSA>
12

> <PUBCHEM_MONOISOTOPIC_WEIGHT>
71.073

> <PUBCHEM_TOTAL_CHARGE>
0

> <PUBCHEM_HEAVY_ATOM_COUNT>
5

> <PUBCHEM_ATOM_DEF_STEREO_COUNT>
0

> <PUBCHEM_ATOM_UDEF_STEREO_COUNT>
0

> <PUBCHEM_BOND_DEF_STEREO_COUNT>
0

> <PUBCHEM_BOND_UDEF_STEREO_COUNT>
0

> <PUBCHEM_ISOTOPIC_ATOM_COUNT>
0

> <PUBCHEM_COMPONENT_COUNT>
1

> <PUBCHEM_CACTVS_TAUTO_COUNT>
-1

> <PUBCHEM_COORDINATE_TYPE>
1
5
255

$$$$
3032576
  -OEChem-02061913232D

 24 27  0     1  0  0  0  0  0999 V2000
    5.5320    0.2350    0.0000 O   0  0  0  0  0  0  0  0  0  0  0  0
    2.8680   -1.2408    0.0000 O   0  0  0  0  0  0  0  0  0  0  0  0
    7.9557    1.4507    0.0000 N   0  0  3  0  0  0  0  0  0  0  0  0
    6.3981   -3.2650    0.0000 N   0  0  0  0  0  0  0  0  0  0  0  0
    8.8217    1.9507    0.0000 C   0  0  2  0  0  0  0  0  0  0  0  0
    7.2641    0.2350    0.0000 C   0  0  2  0  0  0  0  0  0  0  0  0
    8.2300   -0.0238    0.0000 C   0  0  0  0  0  0  0  0  0  0  0  0
   10.2110    1.3986    0.0000 C   0  0  2  0  0  0  0  0  0  0  0  0
    8.1923    3.2997    0.0000 C   0  0  0  0  0  0  0  0  0  0  0  0
    9.7884    0.4923    0.0000 C   0  0  0  0  0  0  0  0  0  0  0  0
    7.3263    2.7997    0.0000 C   0  0  0  0  0  0  0  0  0  0  0  0
    6.3981   -0.2650    0.0000 C   0  0  2  0  0  0  0  0  0  0  0  0
   11.1507    1.7407    0.0000 C   0  0  0  0  0  0  0  0  0  0  0  0
    6.3981   -1.2650    0.0000 C   0  0  0  0  0  0  0  0  0  0  0  0
   11.9167    1.0979    0.0000 C   0  0  0  0  0  0  0  0  0  0  0  0
    5.5320   -1.7650    0.0000 C   0  0  0  0  0  0  0  0  0  0  0  0
    7.2641   -1.7650    0.0000 C   0  0  0  0  0  0  0  0  0  0  0  0
    5.5320   -2.7650    0.0000 C   0  0  0  0  0  0  0  0  0  0  0  0
    4.6381   -1.2303    0.0000 C   0  0  0  0  0  0  0  0  0  0  0  0
    7.2641   -2.7650    0.0000 C   0  0  0  0  0  0  0  0  0  0  0  0
    4.6381   -3.2997    0.0000 C   0  0  0  0  0  0  0  0  0  0  0  0
    3.7320   -1.7442    0.0000 C   0  0  0  0  0  0  0  0  0  0  0  0
    3.7320   -2.7858    0.0000 C   0  0  0  0  0  0  0  0  0  0  0  0
    2.0000   -1.7375    0.0000 C   0  0  0  0  0  0  0  0  0  0  0  0
 12  1  1  6  0  0  0
  2 22  1  0  0  0  0
  2 24  1  0  0  0  0
  3  6  1  0  0  0  0
  3 10  1  0  0  0  0
  3 11  1  0  0  0  0
  4 18  2  0  0  0  0
  4 20  1  0  0  0  0
  5  7  1  0  0  0  0
  5  8  1  0  0  0  0
  5  9  1  0  0  0  0
  6  7  1  0  0  0  0
  6 12  1  0  0  0  0
  8 10  1  0  0  0  0
  8 13  1  1  0  0  0
  9 11  1  0  0  0  0
 12 14  1  0  0  0  0
 13 15  2  0  0  0  0
 14 16  2  0  0  0  0
 14 17  1  0  0  0  0
 16 18  1  0  0  0  0
 16 19  1  0  0  0  0
 17 20  2  0  0  0  0
 18 21  1  0  0  0  0
 19 22  2  0  0  0  0
 21 23  2  0  0  0  0
 22 23  1  0  0  0  0
M  END
> <PUBCHEM_COMPOUND_CID>
3032576

> <PUBCHEM_COMPOUND_CANONICALIZED>
1

> <PUBCHEM_CACTVS_COMPLEXITY>
457

> <PUBCHEM_CACTVS_HBOND_ACCEPTOR>
4

> <PUBCHEM_CACTVS_HBOND_DONOR>
1

> <PUBCHEM_CACTVS_ROTATABLE_BOND>
4

> <PUBCHEM_CACTVS_SUBSKEYS>
AAADceB7MAAAAAAAAAAAAAAAAAAAAAAAAAA8WLFiAAAAAACx8AAAHgAACAAADTzhngY+xvMIFgCgAzRnRACCiCAxIiAI2CA+bJgONuLEsZuEcChkwBHY+Aew4PwOgEABAAACAAAAgAIAAAQAAAAAAAAAAA==

> <PUBCHEM_IUPAC_OPENEYE_NAME>
(~{S})-(6-methoxy-4-quinolyl)-[(2~{R},4~{R},5~{R})-5-vinylquinuclidin-2-yl]methanol

> <PUBCHEM_IUPAC_CAS_NAME>
(~{S})-[(2~{R},4~{R},5~{R})-5-ethenyl-1-azabicyclo[2.2.2]octan-2-yl]-(6-methoxy-4-quinolinyl)methanol

> <PUBCHEM_IUPAC_NAME>
(~{S})-[(2~{R},4~{R},5~{R})-5-ethenyl-1-azabicyclo[2.2.2]octan-2-yl]-(6-methoxyquinolin-4-yl)methanol

> <PUBCHEM_IUPAC_SYSTEMATIC_NAME>
(~{S})-[(2~{R},4~{R},5~{R})-5-ethenyl-1-azabicyclo[2.2.2]octan-2-yl]-(6-methoxyquinolin-4-yl)methanol

> <PUBCHEM_IUPAC_TRADITIONAL_NAME>
(~{S})-(6-methoxy-4-quinolyl)-[(2~{R},4~{R},5~{R})-5-vinylquinuclidin-2-yl]methanol

> <PUBCHEM_IUPAC_INCHI>
InChI=1S/C20H24N2O2/c1-3-13-12-22-9-7-14(13)10-19(22)20(23)16-6-8-21-18-5-4-15(24-2)11-17(16)18/h3-6,8,11,13-14,19-20,23H,1,7,9-10,12H2,2H3/t13-,14+,19+,20-/m0/s1

> <PUBCHEM_IUPAC_INCHIKEY>
LOUPRKONTZGTKE-SMHQJORMSA-N

> <PUBCHEM_XLOGP3>
2.9

> <PUBCHEM_EXACT_MASS>
324.184

> <PUBCHEM_MOLECULAR_FORMULA>
C20H24N2O2

> <PUBCHEM_MOLECULAR_WEIGHT>
324.424

> <PUBCHEM_OPENEYE_CAN_SMILES>
COC1=CC2=C(C=CN=C2C=C1)C(C3CC4CCN3CC4C=C)O

> <PUBCHEM_OPENEYE_ISO_SMILES>
COC1=CC2=C(C=CN=C2C=C1)[C@@H]([C@H]3C[C@H]4CCN3C[C@@H]4C=C)O

> <PUBCHEM_CACTVS_TPSA>
45.6

> <PUBCHEM_MONOISOTOPIC_WEIGHT>
324.184

> <PUBCHEM_TOTAL_CHARGE>
0

> <PUBCHEM_HEAVY_ATOM_COUNT>
24

> <PUBCHEM_ATOM_DEF_STEREO_COUNT>
4

> <PUBCHEM_ATOM_UDEF_STEREO_COUNT>
0

> <PUBCHEM_BOND_DEF_STEREO_COUNT>
0

> <PUBCHEM_BOND_UDEF_STEREO_COUNT>
0

> <PUBCHEM_ISOTOPIC_ATOM_COUNT>
0

> <PUBCHEM_COMPONENT_COUNT>
1

> <PUBCHEM_CACTVS_TAUTO_COUNT>
-1

> <PUBCHEM_COORDINATE_TYPE>
1
5
255

> <PUBCHEM_BONDANNOTATIONS>
12  1  6
14  16  8
14  17  8
16  18  8
16  19  8
17  20  8
18  21  8
19  22  8
21  23  8
22  23  8
4  18  8
4  20  8
5  25  6
6  26  5
8  13  5

$$$$
8438
  -OEChem-02061913072D

 11 12  0     0  0  0  0  0  0999 V2000
    6.4103    0.4947    0.0000 O   0  0  0  0  0  0  0  0  0  0  0  0
    6.4103   -1.1147    0.0000 O   0  0  0  0  0  0  0  0  0  0  0  0
    2.0000    0.1900    0.0000 O   0  0  0  0  0  0  0  0  0  0  0  0
    5.4641    0.1900    0.0000 C   0  0  0  0  0  0  0  0  0  0  0  0
    5.4641   -0.8100    0.0000 C   0  0  0  0  0  0  0  0  0  0  0  0
    4.5981    0.6900    0.0000 C   0  0  0  0  0  0  0  0  0  0  0  0
    6.9939   -0.3100    0.0000 C   0  0  0  0  0  0  0  0  0  0  0  0
    4.5981   -1.3100    0.0000 C   0  0  0  0  0  0  0  0  0  0  0  0
    3.7320    0.1900    0.0000 C   0  0  0  0  0  0  0  0  0  0  0  0
    3.7320   -0.8100    0.0000 C   0  0  0  0  0  0  0  0  0  0  0  0
    2.8660    0.6900    0.0000 C   0  0  0  0  0  0  0  0  0  0  0  0
  1  4  1  0  0  0  0
  1  7  1  0  0  0  0
  2  5  1  0  0  0  0
  2  7  1  0  0  0  0
  3 11  2  0  0  0  0
  4  5  2  0  0  0  0
  4  6  1  0  0  0  0
  5  8  1  0  0  0  0
  6  9  2  0  0  0  0
  8 10  2  0  0  0  0
  9 10  1  0  0  0  0
  9 11  1  0  0  0  0
M  END
> <PUBCHEM_COMPOUND_CID>
8438

> <PUBCHEM_COMPOUND_CANONICALIZED>
1

> <PUBCHEM_CACTVS_COMPLEXITY>
157

> <PUBCHEM_CACTVS_HBOND_ACCEPTOR>
3

> <PUBCHEM_CACTVS_HBOND_DONOR>
0

> <PUBCHEM_CACTVS_ROTATABLE_BOND>
1

> <PUBCHEM_CACTVS_SUBSKEYS>
AAADcYBwMAAAAAAAAAAAAAAAAAAAASAAAAAwAAAAAAAAAEgBAAAAGgAAAAAADASgmAMwDoAABACIAihSgAACCAAkIAAIiAEGiMgdJjKENRqgMSIkwBEOqYeKzBDOIAABAAAAQABAAAIAAACAAAAAAAAAAA==

> <PUBCHEM_IUPAC_OPENEYE_NAME>
1,3-benzodioxole-5-carbaldehyde

> <PUBCHEM_IUPAC_CAS_NAME>
1,3-benzodioxole-5-carboxaldehyde

> <PUBCHEM_IUPAC_NAME>
1,3-benzodioxole-5-carbaldehyde

> <PUBCHEM_IUPAC_SYSTEMATIC_NAME>
1,3-benzodioxole-5-carbaldehyde

> <PUBCHEM_IUPAC_TRADITIONAL_NAME>
piperonal

> <PUBCHEM_IUPAC_INCHI>
InChI=1S/C8H6O3/c9-4-6-1-2-7-8(3-6)11-5-10-7/h1-4H,5H2

> <PUBCHEM_IUPAC_INCHIKEY>
SATCULPHIDQDRE-UHFFFAOYSA-N

> <PUBCHEM_XLOGP3>
1.1

> <PUBCHEM_EXACT_MASS>
150.032

> <PUBCHEM_MOLECULAR_FORMULA>
C8H6O3

> <PUBCHEM_MOLECULAR_WEIGHT>
150.133

> <PUBCHEM_OPENEYE_CAN_SMILES>
C1OC2=C(O1)C=C(C=C2)C=O

> <PUBCHEM_OPENEYE_ISO_SMILES>
C1OC2=C(O1)C=C(C=C2)C=O

> <PUBCHEM_CACTVS_TPSA>
35.5

> <PUBCHEM_MONOISOTOPIC_WEIGHT>
150.032

> <PUBCHEM_TOTAL_CHARGE>
0

> <PUBCHEM_HEAVY_ATOM_COUNT>
11

> <PUBCHEM_ATOM_DEF_STEREO_COUNT>
0

> <PUBCHEM_ATOM_UDEF_STEREO_COUNT>
0

> <PUBCHEM_BOND_DEF_STEREO_COUNT>
0

> <PUBCHEM_BOND_UDEF_STEREO_COUNT>
0

> <PUBCHEM_ISOTOPIC_ATOM_COUNT>
0

> <PUBCHEM_COMPONENT_COUNT>
1

> <PUBCHEM_CACTVS_TAUTO_COUNT>
-1

> <PUBCHEM_COORDINATE_TYPE>
1
5
255

> <PUBCHEM_BONDANNOTATIONS>
4  5  8
4  6  8
5  8  8
6  9  8
8  10  8
9  10  8

$$$$
91746237
  -OEChem-02061914562D

 29 31  0     1  0  0  0  0  0999 V2000
    5.4641   -4.8465    0.0000 O   0  0  0  0  0  0  0  0  0  0  0  0
    3.7320    1.1535    0.0000 C   0  0  1  0  0  0  0  0  0  0  0  0
    4.6783    1.4582    0.0000 C   0  0  1  0  0  0  0  0  0  0  0  0
    3.7320    0.1535    0.0000 C   0  0  3  0  0  0  0  0  0  0  0  0
    5.2619    0.6535    0.0000 C   0  0  0  0  0  0  0  0  0  0  0  0
    4.6783   -0.1512    0.0000 C   0  0  0  0  0  0  0  0  0  0  0  0
    2.8660    1.6535    0.0000 C   0  0  0  0  0  0  0  0  0  0  0  0
    4.9889    2.4087    0.0000 C   0  0  2  0  0  0  0  0  0  0  0  0
    2.8660   -0.3465    0.0000 C   0  0  0  0  0  0  0  0  0  0  0  0
    3.7320    2.1535    0.0000 C   0  0  0  0  0  0  0  0  0  0  0  0
    2.0000    1.1535    0.0000 C   0  0  0  0  0  0  0  0  0  0  0  0
    2.0000    0.1535    0.0000 C   0  0  0  0  0  0  0  0  0  0  0  0
    4.3211    3.1530    0.0000 C   0  0  0  0  0  0  0  0  0  0  0  0
    5.9674    2.6150    0.0000 C   0  0  0  0  0  0  0  0  0  0  0  0
    2.8660   -1.3465    0.0000 C   0  0  0  0  0  0  0  0  0  0  0  0
    6.2781    3.5655    0.0000 C   0  0  0  0  0  0  0  0  0  0  0  0
    3.7320   -1.8465    0.0000 C   0  0  0  0  0  0  0  0  0  0  0  0
    7.2566    3.7717    0.0000 C   0  0  1  0  0  0  0  0  0  0  0  0
    3.7320   -2.8465    0.0000 C   0  0  0  0  0  0  0  0  0  0  0  0
    7.5673    4.7222    0.0000 C   0  0  0  0  0  0  0  0  0  0  0  0
    4.5981   -3.3465    0.0000 C   0  0  0  0  0  0  0  0  0  0  0  0
    7.9244    3.0274    0.0000 C   0  0  0  0  0  0  0  0  0  0  0  0
    2.8660   -3.3465    0.0000 C   0  0  0  0  0  0  0  0  0  0  0  0
    4.5981   -4.3465    0.0000 C   0  0  2  0  0  0  0  0  0  0  0  0
    2.8660   -4.3465    0.0000 C   0  0  0  0  0  0  0  0  0  0  0  0
    3.7320   -4.8465    0.0000 C   0  0  0  0  0  0  0  0  0  0  0  0
    8.5458    4.9284    0.0000 C   0  0  0  0  0  0  0  0  0  0  0  0
    6.8994    5.4665    0.0000 C   0  0  0  0  0  0  0  0  0  0  0  0
    2.0000   -2.8465    0.0000 C   0  0  0  0  0  0  0  0  0  0  0  0
 24  1  1  1  0  0  0
  2  3  1  0  0  0  0
  2  4  1  0  0  0  0
  2  7  1  0  0  0  0
  2 10  1  6  0  0  0
  3  5  1  0  0  0  0
  3  8  1  0  0  0  0
  4  6  1  0  0  0  0
  4  9  1  0  0  0  0
  5  6  1  0  0  0  0
  7 11  1  0  0  0  0
  8 13  1  6  0  0  0
  8 14  1  0  0  0  0
  9 12  1  0  0  0  0
  9 15  2  0  0  0  0
 11 12  1  0  0  0  0
 14 16  2  0  0  0  0
 15 17  1  0  0  0  0
 16 18  1  0  0  0  0
 17 19  2  0  0  0  0
 18 20  1  0  0  0  0
 18 22  1  1  0  0  0
 19 21  1  0  0  0  0
 19 23  1  0  0  0  0
 20 27  1  0  0  0  0
 20 28  1  0  0  0  0
 21 24  1  0  0  0  0
 23 25  1  0  0  0  0
 23 29  2  0  0  0  0
 24 26  1  0  0  0  0
 25 26  1  0  0  0  0
M  END
> <PUBCHEM_COMPOUND_CID>
91746237

> <PUBCHEM_COMPOUND_CANONICALIZED>
1

> <PUBCHEM_CACTVS_COMPLEXITY>
678

> <PUBCHEM_CACTVS_HBOND_ACCEPTOR>
1

> <PUBCHEM_CACTVS_HBOND_DONOR>
1

> <PUBCHEM_CACTVS_ROTATABLE_BOND>
5

> <PUBCHEM_CACTVS_SUBSKEYS>
AAADcfB4IAAAAAAAAAAAAAAAAAAAAYAAAAAwYAAAAAAAAGAAAAAAGgAACAAADxSggAICAAAAAgCAAiBCAAAAAAAgAAAICAAAAAgIEAIAAQAAQAAEwAAIgAOAwMAPgAAAAAAAAAAAAAAAACAAAQAACAAAAA==

> <PUBCHEM_IUPAC_OPENEYE_NAME>
(1~{S},3~{Z})-3-[(2~{Z})-2-[(1~{S},7~{a}~{S})-7~{a}-methyl-1-[(~{E},1~{R},4~{R})-1,4,5-trimethylhex-2-enyl]-2,3,3~{a},5,6,7-hexahydro-1~{H}-inden-4-ylidene]ethylidene]-4-methylene-cyclohexanol

> <PUBCHEM_IUPAC_CAS_NAME>
(1~{S},3~{Z})-3-[(2~{Z})-2-[(1~{S},7~{a}~{S})-1-[(~{E},2~{R},5~{R})-5,6-dimethylhept-3-en-2-yl]-7~{a}-methyl-2,3,3~{a},5,6,7-hexahydro-1~{H}-inden-4-ylidene]ethylidene]-4-methylene-1-cyclohexanol

> <PUBCHEM_IUPAC_NAME>
(1~{S},3~{Z})-3-[(2~{Z})-2-[(1~{S},7~{a}~{S})-1-[(~{E},2~{R},5~{R})-5,6-dimethylhept-3-en-2-yl]-7~{a}-methyl-2,3,3~{a},5,6,7-hexahydro-1~{H}-inden-4-ylidene]ethylidene]-4-methylidenecyclohexan-1-ol

> <PUBCHEM_IUPAC_SYSTEMATIC_NAME>
(1~{S},3~{Z})-3-[(2~{Z})-2-[(1~{S},7~{a}~{S})-1-[(~{E},2~{R},5~{R})-5,6-dimethylhept-3-en-2-yl]-7~{a}-methyl-2,3,3~{a},5,6,7-hexahydro-1~{H}-inden-4-ylidene]ethylidene]-4-methylidene-cyclohexan-1-ol

> <PUBCHEM_IUPAC_TRADITIONAL_NAME>
(1~{S},3~{Z})-3-[(2~{Z})-2-[(1~{S},7~{a}~{S})-7~{a}-methyl-1-[(~{E},1~{R},4~{R})-1,4,5-trimethylhex-2-enyl]-2,3,3~{a},5,6,7-hexahydro-1~{H}-inden-4-ylidene]ethylidene]-4-methylene-cyclohexanol

> <PUBCHEM_IUPAC_INCHI>
InChI=1S/C28H44O/c1-19(2)20(3)9-10-22(5)26-15-16-27-23(8-7-17-28(26,27)6)12-13-24-18-25(29)14-11-21(24)4/h9-10,12-13,19-20,22,25-27,29H,4,7-8,11,14-18H2,1-3,5-6H3/b10-9+,23-12-,24-13-/t20-,22+,25-,26-,27?,28-/m0/s1

> <PUBCHEM_IUPAC_INCHIKEY>
MECHNRXZTMCUDQ-ANGGWTPUSA-N

> <PUBCHEM_XLOGP3_AA>
7.4

> <PUBCHEM_EXACT_MASS>
396.339

> <PUBCHEM_MOLECULAR_FORMULA>
C28H44O

> <PUBCHEM_MOLECULAR_WEIGHT>
396.659

> <PUBCHEM_OPENEYE_CAN_SMILES>
CC(C)C(C)C=CC(C)C1CCC2C1(CCCC2=CC=C3CC(CCC3=C)O)C

> <PUBCHEM_OPENEYE_ISO_SMILES>
C[C@H](/C=C/[C@H](C)C(C)C)[C@@H]1CCC\2[C@]1(CCC/C2=C/C=C\3/C[C@H](CCC3=C)O)C

> <PUBCHEM_CACTVS_TPSA>
20.2

> <PUBCHEM_MONOISOTOPIC_WEIGHT>
396.339

> <PUBCHEM_TOTAL_CHARGE>
0

> <PUBCHEM_HEAVY_ATOM_COUNT>
29

> <PUBCHEM_ATOM_DEF_STEREO_COUNT>
5

> <PUBCHEM_ATOM_UDEF_STEREO_COUNT>
1

> <PUBCHEM_BOND_DEF_STEREO_COUNT>
3

> <PUBCHEM_BOND_UDEF_STEREO_COUNT>
0

> <PUBCHEM_ISOTOPIC_ATOM_COUNT>
0

> <PUBCHEM_COMPONENT_COUNT>
1

> <PUBCHEM_CACTVS_TAUTO_COUNT>
-1

> <PUBCHEM_COORDINATE_TYPE>
1
5
255

> <PUBCHEM_BONDANNOTATIONS>
24  1  5
18  22  5
2  10  6
3  30  5
4  9  3
8  13  6

$$$$
5702050
  -OEChem-02061913352D

 29 31  0     1  0  0  0  0  0999 V2000
    2.0000   -4.8465    0.0000 O   0  0  0  0  0  0  0  0  0  0  0  0
    5.4641    1.1535    0.0000 C   0  0  2  0  0  0  0  0  0  0  0  0
    6.4103    1.4582    0.0000 C   0  0  3  0  0  0  0  0  0  0  0  0
    5.4641    0.1535    0.0000 C   0  0  1  0  0  0  0  0  0  0  0  0
    6.9939    0.6535    0.0000 C   0  0  0  0  0  0  0  0  0  0  0  0
    6.4103   -0.1512    0.0000 C   0  0  0  0  0  0  0  0  0  0  0  0
    4.5981    1.6535    0.0000 C   0  0  0  0  0  0  0  0  0  0  0  0
    6.7210    2.4087    0.0000 C   0  0  2  0  0  0  0  0  0  0  0  0
    4.5981   -0.3465    0.0000 C   0  0  0  0  0  0  0  0  0  0  0  0
    5.4641    2.1535    0.0000 C   0  0  0  0  0  0  0  0  0  0  0  0
    3.7320    1.1535    0.0000 C   0  0  0  0  0  0  0  0  0  0  0  0
    3.7320    0.1535    0.0000 C   0  0  0  0  0  0  0  0  0  0  0  0
    6.0531    3.1530    0.0000 C   0  0  0  0  0  0  0  0  0  0  0  0
    7.6995    2.6150    0.0000 C   0  0  0  0  0  0  0  0  0  0  0  0
    4.5981   -1.3465    0.0000 C   0  0  0  0  0  0  0  0  0  0  0  0
    8.0102    3.5655    0.0000 C   0  0  0  0  0  0  0  0  0  0  0  0
    3.7320   -1.8465    0.0000 C   0  0  0  0  0  0  0  0  0  0  0  0
    8.9887    3.7717    0.0000 C   0  0  1  0  0  0  0  0  0  0  0  0
    3.7320   -2.8465    0.0000 C   0  0  0  0  0  0  0  0  0  0  0  0
    9.2993    4.7222    0.0000 C   0  0  0  0  0  0  0  0  0  0  0  0
    2.8660   -3.3465    0.0000 C   0  0  0  0  0  0  0  0  0  0  0  0
    9.6565    3.0274    0.0000 C   0  0  0  0  0  0  0  0  0  0  0  0
    4.5981   -3.3465    0.0000 C   0  0  0  0  0  0  0  0  0  0  0  0
    2.8660   -4.3465    0.0000 C   0  0  2  0  0  0  0  0  0  0  0  0
    4.5981   -4.3465    0.0000 C   0  0  0  0  0  0  0  0  0  0  0  0
    3.7320   -4.8465    0.0000 C   0  0  0  0  0  0  0  0  0  0  0  0
   10.2778    4.9284    0.0000 C   0  0  0  0  0  0  0  0  0  0  0  0
    8.6315    5.4665    0.0000 C   0  0  0  0  0  0  0  0  0  0  0  0
    5.4641   -2.8465    0.0000 C   0  0  0  0  0  0  0  0  0  0  0  0
 24  1  1  6  0  0  0
  2  3  1  0  0  0  0
  2  4  1  0  0  0  0
  2  7  1  0  0  0  0
  2 10  1  1  0  0  0
  3  5  1  0  0  0  0
  3  8  1  0  0  0  0
  4  6  1  0  0  0  0
  4  9  1  0  0  0  0
  5  6  1  0  0  0  0
  7 11  1  0  0  0  0
  8 13  1  6  0  0  0
  8 14  1  0  0  0  0
  9 12  1  0  0  0  0
  9 15  2  0  0  0  0
 11 12  1  0  0  0  0
 14 16  2  0  0  0  0
 15 17  1  0  0  0  0
 16 18  1  0  0  0  0
 17 19  2  0  0  0  0
 18 20  1  0  0  0  0
 18 22  1  1  0  0  0
 19 21  1  0  0  0  0
 19 23  1  0  0  0  0
 20 27  1  0  0  0  0
 20 28  1  0  0  0  0
 21 24  1  0  0  0  0
 23 25  1  0  0  0  0
 23 29  2  0  0  0  0
 24 26  1  0  0  0  0
 25 26  1  0  0  0  0
M  END
> <PUBCHEM_COMPOUND_CID>
5702050

> <PUBCHEM_COMPOUND_CANONICALIZED>
1

> <PUBCHEM_CACTVS_COMPLEXITY>
678

> <PUBCHEM_CACTVS_HBOND_ACCEPTOR>
1

> <PUBCHEM_CACTVS_HBOND_DONOR>
1

> <PUBCHEM_CACTVS_ROTATABLE_BOND>
5

> <PUBCHEM_CACTVS_SUBSKEYS>
AAADcfB4IAAAAAAAAAAAAAAAAAAAAYAAAAAwYAAAAAAAAGAAAAAAGgAACAAADxSggAICAAAAAgCAAiBCAAAAAAAgAAAICAAAAAgIEAIAAQAAQAAEwAAIgAOAwMAPgAAAAAAAAAAAAAAAACAAAQAACAAAAA==

> <PUBCHEM_IUPAC_OPENEYE_NAME>
(1~{S},3~{Z})-3-[(2~{E})-2-[(3~{a}~{S},7~{a}~{R})-7~{a}-methyl-1-[(~{E},1~{R},4~{R})-1,4,5-trimethylhex-2-enyl]-2,3,3~{a},5,6,7-hexahydro-1~{H}-inden-4-ylidene]ethylidene]-4-methylene-cyclohexanol

> <PUBCHEM_IUPAC_CAS_NAME>
(1~{S},3~{Z})-3-[(2~{E})-2-[(3~{a}~{S},7~{a}~{R})-1-[(~{E},2~{R},5~{R})-5,6-dimethylhept-3-en-2-yl]-7~{a}-methyl-2,3,3~{a},5,6,7-hexahydro-1~{H}-inden-4-ylidene]ethylidene]-4-methylene-1-cyclohexanol

> <PUBCHEM_IUPAC_NAME>
(1~{S},3~{Z})-3-[(2~{E})-2-[(3~{a}~{S},7~{a}~{R})-1-[(~{E},2~{R},5~{R})-5,6-dimethylhept-3-en-2-yl]-7~{a}-methyl-2,3,3~{a},5,6,7-hexahydro-1~{H}-inden-4-ylidene]ethylidene]-4-methylidenecyclohexan-1-ol

> <PUBCHEM_IUPAC_SYSTEMATIC_NAME>
(1~{S},3~{Z})-3-[(2~{E})-2-[(3~{a}~{S},7~{a}~{R})-1-[(~{E},2~{R},5~{R})-5,6-dimethylhept-3-en-2-yl]-7~{a}-methyl-2,3,3~{a},5,6,7-hexahydro-1~{H}-inden-4-ylidene]ethylidene]-4-methylidene-cyclohexan-1-ol

> <PUBCHEM_IUPAC_TRADITIONAL_NAME>
(1~{S},3~{Z})-3-[(2~{E})-2-[(3~{a}~{S},7~{a}~{R})-7~{a}-methyl-1-[(~{E},1~{R},4~{R})-1,4,5-trimethylhex-2-enyl]-2,3,3~{a},5,6,7-hexahydro-1~{H}-inden-4-ylidene]ethylidene]-4-methylene-cyclohexanol

> <PUBCHEM_IUPAC_INCHI>
InChI=1S/C28H44O/c1-19(2)20(3)9-10-22(5)26-15-16-27-23(8-7-17-28(26,27)6)12-13-24-18-25(29)14-11-21(24)4/h9-10,12-13,19-20,22,25-27,29H,4,7-8,11,14-18H2,1-3,5-6H3/b10-9+,23-12+,24-13-/t20-,22+,25-,26?,27-,28+/m0/s1

> <PUBCHEM_IUPAC_INCHIKEY>
MECHNRXZTMCUDQ-CIFSABHRSA-N

> <PUBCHEM_XLOGP3_AA>
7.4

> <PUBCHEM_EXACT_MASS>
396.339

> <PUBCHEM_MOLECULAR_FORMULA>
C28H44O

> <PUBCHEM_MOLECULAR_WEIGHT>
396.659

> <PUBCHEM_OPENEYE_CAN_SMILES>
CC(C)C(C)C=CC(C)C1CCC2C1(CCCC2=CC=C3CC(CCC3=C)O)C

> <PUBCHEM_OPENEYE_ISO_SMILES>
C[C@H](/C=C/[C@H](C)C(C)C)C1CC[C@@H]\2[C@@]1(CCC/C2=C\C=C/3\C[C@H](CCC3=C)O)C

> <PUBCHEM_CACTVS_TPSA>
20.2

> <PUBCHEM_MONOISOTOPIC_WEIGHT>
396.339

> <PUBCHEM_TOTAL_CHARGE>
0

> <PUBCHEM_HEAVY_ATOM_COUNT>
29

> <PUBCHEM_ATOM_DEF_STEREO_COUNT>
5

> <PUBCHEM_ATOM_UDEF_STEREO_COUNT>
1

> <PUBCHEM_BOND_DEF_STEREO_COUNT>
3

> <PUBCHEM_BOND_UDEF_STEREO_COUNT>
0

> <PUBCHEM_ISOTOPIC_ATOM_COUNT>
0

> <PUBCHEM_COMPONENT_COUNT>
1

> <PUBCHEM_CACTVS_TAUTO_COUNT>
-1

> <PUBCHEM_COORDINATE_TYPE>
1
5
255

> <PUBCHEM_BONDANNOTATIONS>
24  1  6
18  22  5
2  10  5
3  5  3
4  31  6
8  13  6

$$$$
11112419
  -OEChem-02061913492D

 13 14  0     1  0  0  0  0  0999 V2000
    3.6368    2.0930    0.0000 O   0  0  0  0  0  0  0  0  0  0  0  0
    5.9505   -1.4410    0.0000 O   0  0  0  0  0  0  0  0  0  0  0  0
    5.8672    1.9110    0.0000 O   0  0  0  0  0  0  0  0  0  0  0  0
    4.3808   -2.1730    0.0000 O   0  0  0  0  0  0  0  0  0  0  0  0
    6.5992    0.3412    0.0000 O   0  0  0  0  0  0  0  0  0  0  0  0
    3.1590    0.1445    0.0000 C   0  0  2  0  0  0  0  0  0  0  0  0
    2.9002    1.1104    0.0000 C   0  0  1  0  0  0  0  0  0  0  0  0
    4.5317   -0.4475    0.0000 C   0  0  3  0  0  0  0  0  0  0  0  0
    4.8737    0.4922    0.0000 C   0  0  3  0  0  0  0  0  0  0  0  0
    1.7601   -0.3643    0.0000 C   0  0  0  0  0  0  0  0  0  0  0  0
    1.5012    0.6016    0.0000 C   0  0  0  0  0  0  0  0  0  0  0  0
    4.9543   -1.3538    0.0000 C   0  0  0  0  0  0  0  0  0  0  0  0
    5.7800    0.9148    0.0000 C   0  0  0  0  0  0  0  0  0  0  0  0
  1  6  1  0  0  0  0
  1  7  1  0  0  0  0
  2 12  1  0  0  0  0
  3 13  1  0  0  0  0
  4 12  2  0  0  0  0
  5 13  2  0  0  0  0
  6  8  1  0  0  0  0
  6 10  1  0  0  0  0
  7  9  1  0  0  0  0
  7 11  1  0  0  0  0
  8  9  1  0  0  0  0
  8 12  1  0  0  0  0
  9 13  1  0  0  0  0
 10 11  1  0  0  0  0
M  END
> <PUBCHEM_COMPOUND_CID>
11112419

> <PUBCHEM_COMPOUND_CANONICALIZED>
1

> <PUBCHEM_CACTVS_COMPLEXITY>
235

> <PUBCHEM_CACTVS_HBOND_ACCEPTOR>
5

> <PUBCHEM_CACTVS_HBOND_DONOR>
2

> <PUBCHEM_CACTVS_ROTATABLE_BOND>
2

> <PUBCHEM_CACTVS_SUBSKEYS>
AAADccBwOAAAAAAAAAAAAAAAAAAAASJAAAAwAAAAAAAAAAAAAAAAGgAACAAADRSggAIACAAABgAIAACQCAAAAAAAAAAAAAEAAAAAABYAAAACQAAFIAAAAAHLyLCOgAAAAAAAAAAAAAIAADAAAAAAAAAAAA==

> <PUBCHEM_IUPAC_OPENEYE_NAME>
(1~{S},4~{R})-7-oxabicyclo[2.2.1]heptane-2,3-dicarboxylic acid

> <PUBCHEM_IUPAC_CAS_NAME>
(1~{S},4~{R})-7-oxabicyclo[2.2.1]heptane-2,3-dicarboxylic acid

> <PUBCHEM_IUPAC_NAME>
(1~{S},4~{R})-7-oxabicyclo[2.2.1]heptane-2,3-dicarboxylic acid

> <PUBCHEM_IUPAC_SYSTEMATIC_NAME>
(1~{S},4~{R})-7-oxabicyclo[2.2.1]heptane-2,3-dicarboxylic acid

> <PUBCHEM_IUPAC_TRADITIONAL_NAME>
(1~{S},4~{R})-7-oxabicyclo[2.2.1]heptane-2,3-dicarboxylic acid

> <PUBCHEM_IUPAC_INCHI>
InChI=1S/C8H10O5/c9-7(10)5-3-1-2-4(13-3)6(5)8(11)12/h3-6H,1-2H2,(H,9,10)(H,11,12)/t3-,4+,5?,6?

> <PUBCHEM_IUPAC_INCHIKEY>
GXEKYRXVRROBEV-LAXKNYFCSA-N

> <PUBCHEM_XLOGP3_AA>
-0.5

> <PUBCHEM_EXACT_MASS>
186.053

> <PUBCHEM_MOLECULAR_FORMULA>
C8H10O5

> <PUBCHEM_MOLECULAR_WEIGHT>
186.163

> <PUBCHEM_OPENEYE_CAN_SMILES>
C1CC2C(C(C1O2)C(=O)O)C(=O)O

> <PUBCHEM_OPENEYE_ISO_SMILES>
C1C[C@H]2C(C([C@@H]1O2)C(=O)O)C(=O)O

> <PUBCHEM_CACTVS_TPSA>
83.8

> <PUBCHEM_MONOISOTOPIC_WEIGHT>
186.053

> <PUBCHEM_TOTAL_CHARGE>
0

> <PUBCHEM_HEAVY_ATOM_COUNT>
13

> <PUBCHEM_ATOM_DEF_STEREO_COUNT>
2

> <PUBCHEM_ATOM_UDEF_STEREO_COUNT>
2

> <PUBCHEM_BOND_DEF_STEREO_COUNT>
0

> <PUBCHEM_BOND_UDEF_STEREO_COUNT>
0

> <PUBCHEM_ISOTOPIC_ATOM_COUNT>
0

> <PUBCHEM_COMPONENT_COUNT>
1

> <PUBCHEM_CACTVS_TAUTO_COUNT>
-1

> <PUBCHEM_COORDINATE_TYPE>
1
5
255

> <PUBCHEM_BONDANNOTATIONS>
6  14  5
7  15  6
8  12  3
9  13  3

$$$$
18480
  -OEChem-02061913072D

 14 15  0     0  0  0  0  0  0999 V2000
    8.1424    0.3047    0.0000 O   0  0  0  0  0  0  0  0  0  0  0  0
    8.1424   -1.3047    0.0000 O   0  0  0  0  0  0  0  0  0  0  0  0
    2.8660    1.5000    0.0000 O   0  0  0  0  0  0  0  0  0  0  0  0
    7.1962    0.0000    0.0000 C   0  0  0  0  0  0  0  0  0  0  0  0
    7.1962   -1.0000    0.0000 C   0  0  0  0  0  0  0  0  0  0  0  0
    5.4641    0.0000    0.0000 C   0  0  0  0  0  0  0  0  0  0  0  0
    6.3301    0.5000    0.0000 C   0  0  0  0  0  0  0  0  0  0  0  0
    6.3301   -1.5000    0.0000 C   0  0  0  0  0  0  0  0  0  0  0  0
    5.4641   -1.0000    0.0000 C   0  0  0  0  0  0  0  0  0  0  0  0
    8.7260   -0.5000    0.0000 C   0  0  0  0  0  0  0  0  0  0  0  0
    4.5981    0.5000    0.0000 C   0  0  0  0  0  0  0  0  0  0  0  0
    3.7320    0.0000    0.0000 C   0  0  0  0  0  0  0  0  0  0  0  0
    2.8660    0.5000    0.0000 C   0  0  0  0  0  0  0  0  0  0  0  0
    2.0000    0.0000    0.0000 C   0  0  0  0  0  0  0  0  0  0  0  0
  1  4  1  0  0  0  0
  1 10  1  0  0  0  0
  2  5  1  0  0  0  0
  2 10  1  0  0  0  0
  3 13  2  0  0  0  0
  4  5  2  0  0  0  0
  4  7  1  0  0  0  0
  5  8  1  0  0  0  0
  6  7  2  0  0  0  0
  6  9  1  0  0  0  0
  6 11  1  0  0  0  0
  8  9  2  0  0  0  0
 11 12  2  3  0  0  0
 12 13  1  0  0  0  0
 13 14  1  0  0  0  0
M  END
> <PUBCHEM_COMPOUND_CID>
18480

> <PUBCHEM_COMPOUND_CANONICALIZED>
1

> <PUBCHEM_CACTVS_COMPLEXITY>
247

> <PUBCHEM_CACTVS_HBOND_ACCEPTOR>
3

> <PUBCHEM_CACTVS_HBOND_DONOR>
0

> <PUBCHEM_CACTVS_ROTATABLE_BOND>
2

> <PUBCHEM_CACTVS_SUBSKEYS>
AAADccBwMAAAAAAAAAAAAAAAAAAAASAAAAAwAAAAAAAAAEgBAAAAGgAAAAAADASAmAMyDoAABACIAqBSAAACCAAgIAAIiAAGiMgdJiKEMRqgMCIkwBEOqYeAwBAOIAABAAAAQABAAAIAAACAAAAAAAAAAA==

> <PUBCHEM_IUPAC_OPENEYE_NAME>
4-(1,3-benzodioxol-5-yl)but-3-en-2-one

> <PUBCHEM_IUPAC_CAS_NAME>
4-(1,3-benzodioxol-5-yl)-3-buten-2-one

> <PUBCHEM_IUPAC_NAME>
4-(1,3-benzodioxol-5-yl)but-3-en-2-one

> <PUBCHEM_IUPAC_SYSTEMATIC_NAME>
4-(1,3-benzodioxol-5-yl)but-3-en-2-one

> <PUBCHEM_IUPAC_TRADITIONAL_NAME>
4-(1,3-benzodioxol-5-yl)but-3-en-2-one

> <PUBCHEM_IUPAC_INCHI>
InChI=1S/C11H10O3/c1-8(12)2-3-9-4-5-10-11(6-9)14-7-13-10/h2-6H,7H2,1H3

> <PUBCHEM_IUPAC_INCHIKEY>
XIYPXOFSURQTTJ-UHFFFAOYSA-N

> <PUBCHEM_XLOGP3>
2.2

> <PUBCHEM_EXACT_MASS>
190.063

> <PUBCHEM_MOLECULAR_FORMULA>
C11H10O3

> <PUBCHEM_MOLECULAR_WEIGHT>
190.198

> <PUBCHEM_OPENEYE_CAN_SMILES>
CC(=O)C=CC1=CC2=C(C=C1)OCO2

> <PUBCHEM_OPENEYE_ISO_SMILES>
CC(=O)C=CC1=CC2=C(C=C1)OCO2

> <PUBCHEM_CACTVS_TPSA>
35.5

> <PUBCHEM_MONOISOTOPIC_WEIGHT>
190.063

> <PUBCHEM_TOTAL_CHARGE>
0

> <PUBCHEM_HEAVY_ATOM_COUNT>
14

> <PUBCHEM_ATOM_DEF_STEREO_COUNT>
0

> <PUBCHEM_ATOM_UDEF_STEREO_COUNT>
0

> <PUBCHEM_BOND_DEF_STEREO_COUNT>
0

> <PUBCHEM_BOND_UDEF_STEREO_COUNT>
1

> <PUBCHEM_ISOTOPIC_ATOM_COUNT>
0

> <PUBCHEM_COMPONENT_COUNT>
1

> <PUBCHEM_CACTVS_TAUTO_COUNT>
-1

> <PUBCHEM_COORDINATE_TYPE>
1
5
255

> <PUBCHEM_BONDANNOTATIONS>
11  12  1
4  5  8
4  7  8
5  8  8
6  7  8
6  9  8
8  9  8

$$$$
3291
  -OEChem-02061913062D

 10 10  0     1  0  0  0  0  0999 V2000
    5.5202   -0.8242    0.0000 O   0  0  0  0  0  0  0  0  0  0  0  0
    2.0000   -0.8242    0.0000 O   0  0  0  0  0  0  0  0  0  0  0  0
    3.7601   -1.1030    0.0000 N   0  0  0  0  0  0  0  0  0  0  0  0
    4.2601    0.4358    0.0000 C   0  0  3  0  0  0  0  0  0  0  0  0
    3.2601    0.4358    0.0000 C   0  0  0  0  0  0  0  0  0  0  0  0
    5.2111    0.7449    0.0000 C   0  0  0  0  0  0  0  0  0  0  0  0
    4.5691   -0.5152    0.0000 C   0  0  0  0  0  0  0  0  0  0  0  0
    4.2601    1.4358    0.0000 C   0  0  0  0  0  0  0  0  0  0  0  0
    2.9511   -0.5152    0.0000 C   0  0  0  0  0  0  0  0  0  0  0  0
    5.4190    1.7230    0.0000 C   0  0  0  0  0  0  0  0  0  0  0  0
  1  7  2  0  0  0  0
  2  9  2  0  0  0  0
  3  7  1  0  0  0  0
  3  9  1  0  0  0  0
  4  5  1  0  0  0  0
  4  6  1  0  0  0  0
  4  7  1  0  0  0  0
  4  8  1  0  0  0  0
  5  9  1  0  0  0  0
  6 10  1  0  0  0  0
M  END
> <PUBCHEM_COMPOUND_CID>
3291

> <PUBCHEM_COMPOUND_CANONICALIZED>
1

> <PUBCHEM_CACTVS_COMPLEXITY>
188

> <PUBCHEM_CACTVS_HBOND_ACCEPTOR>
2

> <PUBCHEM_CACTVS_HBOND_DONOR>
1

> <PUBCHEM_CACTVS_ROTATABLE_BOND>
1

> <PUBCHEM_CACTVS_SUBSKEYS>
AAADccBiMAAAAAAAAAAAAAAAAAAAAWAAAAAAAAAAAAAAAAAAAAAAHgAQAAAADgCBgAACAALAAAAIAAEQEAAAAAAAAAAAAAEAAAAAABIAgAAEAAAAFCCAAAAdAAALAAAAAAAAAAAAAAAAAAAAAAAAAAAAAA==

> <PUBCHEM_IUPAC_OPENEYE_NAME>
3-ethyl-3-methyl-pyrrolidine-2,5-dione

> <PUBCHEM_IUPAC_CAS_NAME>
3-ethyl-3-methylpyrrolidine-2,5-dione

> <PUBCHEM_IUPAC_NAME>
3-ethyl-3-methylpyrrolidine-2,5-dione

> <PUBCHEM_IUPAC_SYSTEMATIC_NAME>
3-ethyl-3-methyl-pyrrolidine-2,5-dione

> <PUBCHEM_IUPAC_TRADITIONAL_NAME>
ethosuximide

> <PUBCHEM_IUPAC_INCHI>
InChI=1S/C7H11NO2/c1-3-7(2)4-5(9)8-6(7)10/h3-4H2,1-2H3,(H,8,9,10)

> <PUBCHEM_IUPAC_INCHIKEY>
HAPOVYFOVVWLRS-UHFFFAOYSA-N

> <PUBCHEM_XLOGP3>
0.4

> <PUBCHEM_EXACT_MASS>
141.079

> <PUBCHEM_MOLECULAR_FORMULA>
C7H11NO2

> <PUBCHEM_MOLECULAR_WEIGHT>
141.17

> <PUBCHEM_OPENEYE_CAN_SMILES>
CCC1(CC(=O)NC1=O)C

> <PUBCHEM_OPENEYE_ISO_SMILES>
CCC1(CC(=O)NC1=O)C

> <PUBCHEM_CACTVS_TPSA>
46.2

> <PUBCHEM_MONOISOTOPIC_WEIGHT>
141.079

> <PUBCHEM_TOTAL_CHARGE>
0

> <PUBCHEM_HEAVY_ATOM_COUNT>
10

> <PUBCHEM_ATOM_DEF_STEREO_COUNT>
0

> <PUBCHEM_ATOM_UDEF_STEREO_COUNT>
1

> <PUBCHEM_BOND_DEF_STEREO_COUNT>
0

> <PUBCHEM_BOND_UDEF_STEREO_COUNT>
0

> <PUBCHEM_ISOTOPIC_ATOM_COUNT>
0

> <PUBCHEM_COMPONENT_COUNT>
1

> <PUBCHEM_CACTVS_TAUTO_COUNT>
-1

> <PUBCHEM_COORDINATE_TYPE>
1
5
255

> <PUBCHEM_BONDANNOTATIONS>
4  8  3

$$$$
19244
  -OEChem-02061913072D

 11 11  0     1  0  0  0  0  0999 V2000
    2.5369    0.7500    0.0000 O   0  0  0  0  0  0  0  0  0  0  0  0
    4.2690    0.7500    0.0000 C   0  0  2  0  0  0  0  0  0  0  0  0
    3.4030    0.2500    0.0000 C   0  0  1  0  0  0  0  0  0  0  0  0
    5.1350    0.2500    0.0000 C   0  0  0  0  0  0  0  0  0  0  0  0
    4.2690   -1.2500    0.0000 C   0  0  1  0  0  0  0  0  0  0  0  0
    3.4030   -0.7500    0.0000 C   0  0  0  0  0  0  0  0  0  0  0  0
    5.1350   -0.7500    0.0000 C   0  0  0  0  0  0  0  0  0  0  0  0
    4.2690    1.7500    0.0000 C   0  0  0  0  0  0  0  0  0  0  0  0
    4.2690   -2.2500    0.0000 C   0  0  0  0  0  0  0  0  0  0  0  0
    5.1350    2.2500    0.0000 C   0  0  0  0  0  0  0  0  0  0  0  0
    3.4030    2.2500    0.0000 C   0  0  0  0  0  0  0  0  0  0  0  0
  3  1  1  1  0  0  0
  2  3  1  0  0  0  0
  2  4  1  0  0  0  0
  2  8  1  1  0  0  0
  3  6  1  0  0  0  0
  4  7  1  0  0  0  0
  5  6  1  0  0  0  0
  5  7  1  0  0  0  0
  5  9  1  1  0  0  0
  8 10  1  0  0  0  0
  8 11  1  0  0  0  0
M  END
> <PUBCHEM_COMPOUND_CID>
19244

> <PUBCHEM_COMPOUND_CANONICALIZED>
1

> <PUBCHEM_CACTVS_COMPLEXITY>
120

> <PUBCHEM_CACTVS_HBOND_ACCEPTOR>
1

> <PUBCHEM_CACTVS_HBOND_DONOR>
1

> <PUBCHEM_CACTVS_ROTATABLE_BOND>
1

> <PUBCHEM_CACTVS_SUBSKEYS>
AAADceBwIAAAAAAAAAAAAAAAAAAAAAAAAAAwAAAAAAAAAAAAAAAAGgAACAAADRSggAICAAAAAgAAAAAAAAAAAAAAAAAAAAAAAAAAEAIAAAAAQAAEAAAAAAGAwPAOgAAAAAAAAACAAAIAABAAAAAAAAAAAA==

> <PUBCHEM_IUPAC_OPENEYE_NAME>
(1~{R},2~{R},5~{R})-2-isopropyl-5-methyl-cyclohexanol

> <PUBCHEM_IUPAC_CAS_NAME>
(1~{R},2~{R},5~{R})-5-methyl-2-propan-2-yl-1-cyclohexanol

> <PUBCHEM_IUPAC_NAME>
(1~{R},2~{R},5~{R})-5-methyl-2-propan-2-ylcyclohexan-1-ol

> <PUBCHEM_IUPAC_SYSTEMATIC_NAME>
(1~{R},2~{R},5~{R})-5-methyl-2-propan-2-yl-cyclohexan-1-ol

> <PUBCHEM_IUPAC_TRADITIONAL_NAME>
(1~{R},2~{R},5~{R})-2-isopropyl-5-methyl-cyclohexanol

> <PUBCHEM_IUPAC_INCHI>
InChI=1S/C10H20O/c1-7(2)9-5-4-8(3)6-10(9)11/h7-11H,4-6H2,1-3H3/t8-,9-,10-/m1/s1

> <PUBCHEM_IUPAC_INCHIKEY>
NOOLISFMXDJSKH-OPRDCNLKSA-N

> <PUBCHEM_XLOGP3_AA>
3

> <PUBCHEM_EXACT_MASS>
156.151

> <PUBCHEM_MOLECULAR_FORMULA>
C10H20O

> <PUBCHEM_MOLECULAR_WEIGHT>
156.269

> <PUBCHEM_OPENEYE_CAN_SMILES>
CC1CCC(C(C1)O)C(C)C

> <PUBCHEM_OPENEYE_ISO_SMILES>
C[C@@H]1CC[C@@H]([C@@H](C1)O)C(C)C

> <PUBCHEM_CACTVS_TPSA>
20.2

> <PUBCHEM_MONOISOTOPIC_WEIGHT>
156.151

> <PUBCHEM_TOTAL_CHARGE>
0

> <PUBCHEM_HEAVY_ATOM_COUNT>
11

> <PUBCHEM_ATOM_DEF_STEREO_COUNT>
3

> <PUBCHEM_ATOM_UDEF_STEREO_COUNT>
0

> <PUBCHEM_BOND_DEF_STEREO_COUNT>
0

> <PUBCHEM_BOND_UDEF_STEREO_COUNT>
0

> <PUBCHEM_ISOTOPIC_ATOM_COUNT>
0

> <PUBCHEM_COMPONENT_COUNT>
1

> <PUBCHEM_CACTVS_TAUTO_COUNT>
-1

> <PUBCHEM_COORDINATE_TYPE>
1
5
255

> <PUBCHEM_BONDANNOTATIONS>
3  1  5
2  8  5
5  9  5

$$$$
122172962
  -OEChem-02061915062D

 29 31  0     1  0  0  0  0  0999 V2000
    2.0000   -4.8465    0.0000 O   0  0  0  0  0  0  0  0  0  0  0  0
    3.7320    1.1535    0.0000 C   0  0  2  0  0  0  0  0  0  0  0  0
    4.6783    1.4582    0.0000 C   0  0  2  0  0  0  0  0  0  0  0  0
    3.7320    0.1535    0.0000 C   0  0  2  0  0  0  0  0  0  0  0  0
    5.2619    0.6535    0.0000 C   0  0  0  0  0  0  0  0  0  0  0  0
    4.6783   -0.1512    0.0000 C   0  0  0  0  0  0  0  0  0  0  0  0
    2.8660    1.6535    0.0000 C   0  0  0  0  0  0  0  0  0  0  0  0
    4.9889    2.4087    0.0000 C   0  0  1  0  0  0  0  0  0  0  0  0
    2.8660   -0.3465    0.0000 C   0  0  0  0  0  0  0  0  0  0  0  0
    3.7320    2.1535    0.0000 C   0  0  0  0  0  0  0  0  0  0  0  0
    2.0000    1.1535    0.0000 C   0  0  0  0  0  0  0  0  0  0  0  0
    2.0000    0.1535    0.0000 C   0  0  0  0  0  0  0  0  0  0  0  0
    4.3211    3.1530    0.0000 C   0  0  0  0  0  0  0  0  0  0  0  0
    5.9674    2.6150    0.0000 C   0  0  0  0  0  0  0  0  0  0  0  0
    2.8660   -1.3465    0.0000 C   0  0  0  0  0  0  0  0  0  0  0  0
    6.2781    3.5655    0.0000 C   0  0  0  0  0  0  0  0  0  0  0  0
    3.7320   -1.8465    0.0000 C   0  0  0  0  0  0  0  0  0  0  0  0
    7.2566    3.7717    0.0000 C   0  0  1  0  0  0  0  0  0  0  0  0
    3.7320   -2.8465    0.0000 C   0  0  0  0  0  0  0  0  0  0  0  0
    7.5673    4.7222    0.0000 C   0  0  0  0  0  0  0  0  0  0  0  0
    2.8660   -3.3465    0.0000 C   0  0  0  0  0  0  0  0  0  0  0  0
    7.9244    3.0274    0.0000 C   0  0  0  0  0  0  0  0  0  0  0  0
    4.5981   -3.3465    0.0000 C   0  0  0  0  0  0  0  0  0  0  0  0
    2.8660   -4.3465    0.0000 C   0  0  2  0  0  0  0  0  0  0  0  0
    4.5981   -4.3465    0.0000 C   0  0  0  0  0  0  0  0  0  0  0  0
    3.7320   -4.8465    0.0000 C   0  0  0  0  0  0  0  0  0  0  0  0
    8.5458    4.9284    0.0000 C   0  0  0  0  0  0  0  0  0  0  0  0
    6.8994    5.4665    0.0000 C   0  0  0  0  0  0  0  0  0  0  0  0
    5.4641   -2.8465    0.0000 C   0  0  0  0  0  0  0  0  0  0  0  0
 24  1  1  6  0  0  0
  2  3  1  0  0  0  0
  2  4  1  0  0  0  0
  2  7  1  0  0  0  0
  2 10  1  1  0  0  0
  3  5  1  0  0  0  0
  3  8  1  0  0  0  0
  4  6  1  0  0  0  0
  4  9  1  0  0  0  0
  5  6  1  0  0  0  0
  7 11  1  0  0  0  0
  8 13  1  1  0  0  0
  8 14  1  0  0  0  0
  9 12  1  0  0  0  0
  9 15  2  0  0  0  0
 11 12  1  0  0  0  0
 14 16  2  0  0  0  0
 15 17  1  0  0  0  0
 16 18  1  0  0  0  0
 17 19  2  0  0  0  0
 18 20  1  0  0  0  0
 18 22  1  1  0  0  0
 19 21  1  0  0  0  0
 19 23  1  0  0  0  0
 20 27  1  0  0  0  0
 20 28  1  0  0  0  0
 21 24  1  0  0  0  0
 23 25  1  0  0  0  0
 23 29  2  0  0  0  0
 24 26  1  0  0  0  0
 25 26  1  0  0  0  0
M  END
> <PUBCHEM_COMPOUND_CID>
122172962

> <PUBCHEM_COMPOUND_CANONICALIZED>
1

> <PUBCHEM_CACTVS_COMPLEXITY>
678

> <PUBCHEM_CACTVS_HBOND_ACCEPTOR>
1

> <PUBCHEM_CACTVS_HBOND_DONOR>
1

> <PUBCHEM_CACTVS_ROTATABLE_BOND>
5

> <PUBCHEM_CACTVS_SUBSKEYS>
AAADcfB4IAAAAAAAAAAAAAAAAAAAAYAAAAAwYAAAAAAAAGAAAAAAGgAACAAADxSggAICAAAAAgCAAiBCAAAAAAAgAAAICAAAAAgIEAIAAQAAQAAEwAAIgAOAwMAPgAAAAAAAAAAAAAAAACAAAQAACAAAAA==

> <PUBCHEM_IUPAC_OPENEYE_NAME>
(1~{S},3~{E})-3-[(2~{Z})-2-[(1~{R},3~{a}~{R},7~{a}~{R})-7~{a}-methyl-1-[(~{E},1~{S},4~{R})-1,4,5-trimethylhex-2-enyl]-2,3,3~{a},5,6,7-hexahydro-1~{H}-inden-4-ylidene]ethylidene]-4-methylene-cyclohexanol

> <PUBCHEM_IUPAC_CAS_NAME>
(1~{S},3~{E})-3-[(2~{Z})-2-[(1~{R},3~{a}~{R},7~{a}~{R})-1-[(~{E},2~{S},5~{R})-5,6-dimethylhept-3-en-2-yl]-7~{a}-methyl-2,3,3~{a},5,6,7-hexahydro-1~{H}-inden-4-ylidene]ethylidene]-4-methylene-1-cyclohexanol

> <PUBCHEM_IUPAC_NAME>
(1~{S},3~{E})-3-[(2~{Z})-2-[(1~{R},3~{a}~{R},7~{a}~{R})-1-[(~{E},2~{S},5~{R})-5,6-dimethylhept-3-en-2-yl]-7~{a}-methyl-2,3,3~{a},5,6,7-hexahydro-1~{H}-inden-4-ylidene]ethylidene]-4-methylidenecyclohexan-1-ol

> <PUBCHEM_IUPAC_SYSTEMATIC_NAME>
(1~{S},3~{E})-3-[(2~{Z})-2-[(1~{R},3~{a}~{R},7~{a}~{R})-1-[(~{E},2~{S},5~{R})-5,6-dimethylhept-3-en-2-yl]-7~{a}-methyl-2,3,3~{a},5,6,7-hexahydro-1~{H}-inden-4-ylidene]ethylidene]-4-methylidene-cyclohexan-1-ol

> <PUBCHEM_IUPAC_TRADITIONAL_NAME>
(1~{S},3~{E})-3-[(2~{Z})-2-[(1~{R},3~{a}~{R},7~{a}~{R})-7~{a}-methyl-1-[(~{E},1~{S},4~{R})-1,4,5-trimethylhex-2-enyl]-2,3,3~{a},5,6,7-hexahydro-1~{H}-inden-4-ylidene]ethylidene]-4-methylene-cyclohexanol

> <PUBCHEM_IUPAC_INCHI>
InChI=1S/C28H44O/c1-19(2)20(3)9-10-22(5)26-15-16-27-23(8-7-17-28(26,27)6)12-13-24-18-25(29)14-11-21(24)4/h9-10,12-13,19-20,22,25-27,29H,4,7-8,11,14-18H2,1-3,5-6H3/b10-9+,23-12-,24-13+/t20-,22-,25-,26+,27+,28+/m0/s1

> <PUBCHEM_IUPAC_INCHIKEY>
MECHNRXZTMCUDQ-VOKNCGFGSA-N

> <PUBCHEM_XLOGP3_AA>
7.4

> <PUBCHEM_EXACT_MASS>
396.339

> <PUBCHEM_MOLECULAR_FORMULA>
C28H44O

> <PUBCHEM_MOLECULAR_WEIGHT>
396.659

> <PUBCHEM_OPENEYE_CAN_SMILES>
CC(C)C(C)C=CC(C)C1CCC2C1(CCCC2=CC=C3CC(CCC3=C)O)C

> <PUBCHEM_OPENEYE_ISO_SMILES>
C[C@@H](/C=C/[C@H](C)C(C)C)[C@H]1CC[C@H]\2[C@@]1(CCC/C2=C/C=C/3\C[C@H](CCC3=C)O)C

> <PUBCHEM_CACTVS_TPSA>
20.2

> <PUBCHEM_MONOISOTOPIC_WEIGHT>
396.339

> <PUBCHEM_TOTAL_CHARGE>
0

> <PUBCHEM_HEAVY_ATOM_COUNT>
29

> <PUBCHEM_ATOM_DEF_STEREO_COUNT>
6

> <PUBCHEM_ATOM_UDEF_STEREO_COUNT>
0

> <PUBCHEM_BOND_DEF_STEREO_COUNT>
3

> <PUBCHEM_BOND_UDEF_STEREO_COUNT>
0

> <PUBCHEM_ISOTOPIC_ATOM_COUNT>
0

> <PUBCHEM_COMPONENT_COUNT>
1

> <PUBCHEM_CACTVS_TAUTO_COUNT>
-1

> <PUBCHEM_COORDINATE_TYPE>
1
5
255

> <PUBCHEM_BONDANNOTATIONS>
24  1  6
18  22  5
2  10  5
3  30  6
4  31  5
8  13  5

$$$$
46782954
  -OEChem-02061914162D

 23 24  0     1  0  0  0  0  0999 V2000
    5.8671    0.7306    0.0000 O   0  0  0  0  0  0  0  0  0  0  0  0
    6.8671   -0.2694    0.0000 O   0  0  0  0  0  0  0  0  0  0  0  0
    5.1350   -0.2694    0.0000 O   0  0  0  0  0  0  0  0  0  0  0  0
    8.1271    1.9906    0.0000 O   0  0  0  0  0  0  0  0  0  0  0  0
    6.3671    3.2694    0.0000 O   0  0  0  0  0  0  0  0  0  0  0  0
    6.8671   -2.2694    0.0000 O   0  0  0  0  0  0  0  0  0  0  0  0
    5.1350   -3.2694    0.0000 O   0  0  0  0  0  0  0  0  0  0  0  0
    3.4030   -2.2694    0.0000 O   0  0  0  0  0  0  0  0  0  0  0  0
    8.5613    1.0907    0.0000 O   0  0  0  0  0  0  0  0  0  0  0  0
    4.3991    2.9688    0.0000 O   0  0  0  0  0  0  0  0  0  0  0  0
    2.5369   -0.7694    0.0000 O   0  0  0  0  0  0  0  0  0  0  0  0
    6.8671    0.7306    0.0000 C   0  0  1  0  0  0  0  0  0  0  0  0
    7.1761    1.6816    0.0000 C   0  0  3  0  0  0  0  0  0  0  0  0
    6.3671    2.2694    0.0000 C   0  0  2  0  0  0  0  0  0  0  0  0
    5.5580    1.6816    0.0000 C   0  0  1  0  0  0  0  0  0  0  0  0
    6.0010   -0.7694    0.0000 C   0  0  1  0  0  0  0  0  0  0  0  0
    6.0010   -1.7694    0.0000 C   0  0  3  0  0  0  0  0  0  0  0  0
    5.1350   -2.2694    0.0000 C   0  0  2  0  0  0  0  0  0  0  0  0
    4.2690   -1.7694    0.0000 C   0  0  1  0  0  0  0  0  0  0  0  0
    4.2690   -0.7694    0.0000 C   0  0  3  0  0  0  0  0  0  0  0  0
    7.8181    0.4216    0.0000 C   0  0  0  0  0  0  0  0  0  0  0  0
    4.6070    1.9906    0.0000 C   0  0  0  0  0  0  0  0  0  0  0  0
    3.4030   -0.2694    0.0000 C   0  0  0  0  0  0  0  0  0  0  0  0
  1 12  1  0  0  0  0
  1 15  1  0  0  0  0
 12  2  1  6  0  0  0
 16  2  1  6  0  0  0
  3 16  1  0  0  0  0
  3 20  1  0  0  0  0
  4 13  1  0  0  0  0
 14  5  1  6  0  0  0
  6 17  1  0  0  0  0
 18  7  1  1  0  0  0
 19  8  1  6  0  0  0
  9 21  1  0  0  0  0
 10 22  1  0  0  0  0
 11 23  1  0  0  0  0
 12 13  1  0  0  0  0
 12 21  1  0  0  0  0
 13 14  1  0  0  0  0
 14 15  1  0  0  0  0
 15 22  1  6  0  0  0
 16 17  1  0  0  0  0
 17 18  1  0  0  0  0
 18 19  1  0  0  0  0
 19 20  1  0  0  0  0
 20 23  1  0  0  0  0
M  END
> <PUBCHEM_COMPOUND_CID>
46782954

> <PUBCHEM_COMPOUND_CANONICALIZED>
1

> <PUBCHEM_CACTVS_COMPLEXITY>
395

> <PUBCHEM_CACTVS_HBOND_ACCEPTOR>
11

> <PUBCHEM_CACTVS_HBOND_DONOR>
8

> <PUBCHEM_CACTVS_ROTATABLE_BOND>
5

> <PUBCHEM_CACTVS_SUBSKEYS>
AAADceBwPAAAAAAAAAAAAAAAAAAAASAAAAAkAAAAAAAAAAAAAAAAGgAACAAACBSwgAMACAAABgAAAAAAAAAAAAAAAAAAAAAAAAAREAIAAAAiQAAFAAAHAAHAYAwAAAAAAAAAAAAAAAAAAAAAAAAAAAAAAA==

> <PUBCHEM_IUPAC_OPENEYE_NAME>
(2~{R},4~{S},5~{S})-2-[(2~{S},4~{R},5~{R})-3,4-dihydroxy-2,5-bis(hydroxymethyl)tetrahydrofuran-2-yl]oxy-6-(hydroxymethyl)tetrahydropyran-3,4,5-triol

> <PUBCHEM_IUPAC_CAS_NAME>
(2~{R},4~{S},5~{S})-2-[[(2~{S},4~{R},5~{R})-3,4-dihydroxy-2,5-bis(hydroxymethyl)-2-oxolanyl]oxy]-6-(hydroxymethyl)oxane-3,4,5-triol

> <PUBCHEM_IUPAC_NAME>
(2~{R},4~{S},5~{S})-2-[(2~{S},4~{R},5~{R})-3,4-dihydroxy-2,5-bis(hydroxymethyl)oxolan-2-yl]oxy-6-(hydroxymethyl)oxane-3,4,5-triol

> <PUBCHEM_IUPAC_SYSTEMATIC_NAME>
(2~{R},4~{S},5~{S})-2-[(2~{S},4~{R},5~{R})-2,5-bis(hydroxymethyl)-3,4-bis(oxidanyl)oxolan-2-yl]oxy-6-(hydroxymethyl)oxane-3,4,5-triol

> <PUBCHEM_IUPAC_TRADITIONAL_NAME>
(2~{R},4~{S},5~{S})-2-[(2~{S},4~{R},5~{R})-3,4-dihydroxy-2,5-dimethylol-tetrahydrofuran-2-yl]oxy-6-methylol-tetrahydropyran-3,4,5-triol

> <PUBCHEM_IUPAC_INCHI>
InChI=1S/C12H22O11/c13-1-4-6(16)8(18)9(19)11(21-4)23-12(3-15)10(20)7(17)5(2-14)22-12/h4-11,13-20H,1-3H2/t4?,5-,6-,7+,8+,9?,10?,11-,12+/m1/s1

> <PUBCHEM_IUPAC_INCHIKEY>
CZMRCDWAGMRECN-MPZPMKCMSA-N

> <PUBCHEM_XLOGP3>
-3.7

> <PUBCHEM_EXACT_MASS>
342.116

> <PUBCHEM_MOLECULAR_FORMULA>
C12H22O11

> <PUBCHEM_MOLECULAR_WEIGHT>
342.297

> <PUBCHEM_OPENEYE_CAN_SMILES>
C(C1C(C(C(C(O1)OC2(C(C(C(O2)CO)O)O)CO)O)O)O)O

> <PUBCHEM_OPENEYE_ISO_SMILES>
C([C@@H]1[C@@H](C([C@](O1)(CO)O[C@@H]2C([C@H]([C@@H](C(O2)CO)O)O)O)O)O)O

> <PUBCHEM_CACTVS_TPSA>
190

> <PUBCHEM_MONOISOTOPIC_WEIGHT>
342.116

> <PUBCHEM_TOTAL_CHARGE>
0

> <PUBCHEM_HEAVY_ATOM_COUNT>
23

> <PUBCHEM_ATOM_DEF_STEREO_COUNT>
6

> <PUBCHEM_ATOM_UDEF_STEREO_COUNT>
3

> <PUBCHEM_BOND_DEF_STEREO_COUNT>
0

> <PUBCHEM_BOND_UDEF_STEREO_COUNT>
0

> <PUBCHEM_ISOTOPIC_ATOM_COUNT>
0

> <PUBCHEM_COMPONENT_COUNT>
1

> <PUBCHEM_CACTVS_TAUTO_COUNT>
-1

> <PUBCHEM_COORDINATE_TYPE>
1
5
255

> <PUBCHEM_BONDANNOTATIONS>
15  22  6
12  2  6
16  2  6
20  23  3
13  4  3
14  5  6
17  6  3
18  7  5
19  8  6

$$$$
122164949
  -OEChem-02061915052D

 29 31  0     1  0  0  0  0  0999 V2000
    5.4641   -4.8465    0.0000 O   0  0  0  0  0  0  0  0  0  0  0  0
    5.4641    1.1535    0.0000 C   0  0  2  0  0  0  0  0  0  0  0  0
    6.4103    1.4582    0.0000 C   0  0  2  0  0  0  0  0  0  0  0  0
    5.4641    0.1535    0.0000 C   0  0  1  0  0  0  0  0  0  0  0  0
    6.9939    0.6535    0.0000 C   0  0  0  0  0  0  0  0  0  0  0  0
    6.4103   -0.1512    0.0000 C   0  0  0  0  0  0  0  0  0  0  0  0
    4.5981    1.6535    0.0000 C   0  0  0  0  0  0  0  0  0  0  0  0
    6.7210    2.4087    0.0000 C   0  0  2  0  0  0  0  0  0  0  0  0
    4.5981   -0.3465    0.0000 C   0  0  0  0  0  0  0  0  0  0  0  0
    5.4641    2.1535    0.0000 C   0  0  0  0  0  0  0  0  0  0  0  0
    3.7320    1.1535    0.0000 C   0  0  0  0  0  0  0  0  0  0  0  0
    3.7320    0.1535    0.0000 C   0  0  0  0  0  0  0  0  0  0  0  0
    6.0531    3.1530    0.0000 C   0  0  0  0  0  0  0  0  0  0  0  0
    7.6995    2.6150    0.0000 C   0  0  0  0  0  0  0  0  0  0  0  0
    4.5981   -1.3465    0.0000 C   0  0  0  0  0  0  0  0  0  0  0  0
    8.0102    3.5655    0.0000 C   0  0  0  0  0  0  0  0  0  0  0  0
    3.7320   -1.8465    0.0000 C   0  0  0  0  0  0  0  0  0  0  0  0
    8.9887    3.7717    0.0000 C   0  0  2  0  0  0  0  0  0  0  0  0
    3.7320   -2.8465    0.0000 C   0  0  0  0  0  0  0  0  0  0  0  0
    9.2993    4.7222    0.0000 C   0  0  0  0  0  0  0  0  0  0  0  0
    4.5981   -3.3465    0.0000 C   0  0  0  0  0  0  0  0  0  0  0  0
    9.6565    3.0274    0.0000 C   0  0  0  0  0  0  0  0  0  0  0  0
    2.8660   -3.3465    0.0000 C   0  0  0  0  0  0  0  0  0  0  0  0
    4.5981   -4.3465    0.0000 C   0  0  2  0  0  0  0  0  0  0  0  0
    2.8660   -4.3465    0.0000 C   0  0  0  0  0  0  0  0  0  0  0  0
    3.7320   -4.8465    0.0000 C   0  0  0  0  0  0  0  0  0  0  0  0
   10.2778    4.9284    0.0000 C   0  0  0  0  0  0  0  0  0  0  0  0
    8.6315    5.4665    0.0000 C   0  0  0  0  0  0  0  0  0  0  0  0
    2.0000   -2.8465    0.0000 C   0  0  0  0  0  0  0  0  0  0  0  0
 24  1  1  1  0  0  0
  2  3  1  0  0  0  0
  2  4  1  0  0  0  0
  2  7  1  0  0  0  0
  2 10  1  1  0  0  0
  3  5  1  0  0  0  0
  3  8  1  0  0  0  0
  4  6  1  0  0  0  0
  4  9  1  0  0  0  0
  5  6  1  0  0  0  0
  7 11  1  0  0  0  0
  8 13  1  6  0  0  0
  8 14  1  0  0  0  0
  9 12  1  0  0  0  0
  9 15  2  3  0  0  0
 11 12  1  0  0  0  0
 14 16  2  0  0  0  0
 15 17  1  0  0  0  0
 16 18  1  0  0  0  0
 17 19  2  0  0  0  0
 18 20  1  0  0  0  0
 18 22  1  6  0  0  0
 19 21  1  0  0  0  0
 19 23  1  0  0  0  0
 20 27  1  0  0  0  0
 20 28  1  0  0  0  0
 21 24  1  0  0  0  0
 23 25  1  0  0  0  0
 23 29  2  0  0  0  0
 24 26  1  0  0  0  0
 25 26  1  0  0  0  0
M  END
> <PUBCHEM_COMPOUND_CID>
122164949

> <PUBCHEM_COMPOUND_CANONICALIZED>
1

> <PUBCHEM_CACTVS_COMPLEXITY>
678

> <PUBCHEM_CACTVS_HBOND_ACCEPTOR>
1

> <PUBCHEM_CACTVS_HBOND_DONOR>
1

> <PUBCHEM_CACTVS_ROTATABLE_BOND>
5

> <PUBCHEM_CACTVS_SUBSKEYS>
AAADcfB4IAAAAAAAAAAAAAAAAAAAAYAAAAAwYAAAAAAAAGAAAAAAGgAACAAADxSggAICAAAAAgCAAiBCAAAAAAAgAAAICAAAAAgIEAIAAQAAQAAEwAAIgAOAwMAPgAAAAAAAAAAAAAAAACAAAQAACAAAAA==

> <PUBCHEM_IUPAC_OPENEYE_NAME>
(1~{S},3~{E})-3-[2-[(1~{R},3~{a}~{S},7~{a}~{R})-7~{a}-methyl-1-[(~{E},1~{R},4~{S})-1,4,5-trimethylhex-2-enyl]-2,3,3~{a},5,6,7-hexahydro-1~{H}-inden-4-ylidene]ethylidene]-4-methylene-cyclohexanol

> <PUBCHEM_IUPAC_CAS_NAME>
(1~{S},3~{E})-3-[2-[(1~{R},3~{a}~{S},7~{a}~{R})-1-[(~{E},2~{R},5~{S})-5,6-dimethylhept-3-en-2-yl]-7~{a}-methyl-2,3,3~{a},5,6,7-hexahydro-1~{H}-inden-4-ylidene]ethylidene]-4-methylene-1-cyclohexanol

> <PUBCHEM_IUPAC_NAME>
(1~{S},3~{E})-3-[2-[(1~{R},3~{a}~{S},7~{a}~{R})-1-[(~{E},2~{R},5~{S})-5,6-dimethylhept-3-en-2-yl]-7~{a}-methyl-2,3,3~{a},5,6,7-hexahydro-1~{H}-inden-4-ylidene]ethylidene]-4-methylidenecyclohexan-1-ol

> <PUBCHEM_IUPAC_SYSTEMATIC_NAME>
(1~{S},3~{E})-3-[2-[(1~{R},3~{a}~{S},7~{a}~{R})-1-[(~{E},2~{R},5~{S})-5,6-dimethylhept-3-en-2-yl]-7~{a}-methyl-2,3,3~{a},5,6,7-hexahydro-1~{H}-inden-4-ylidene]ethylidene]-4-methylidene-cyclohexan-1-ol

> <PUBCHEM_IUPAC_TRADITIONAL_NAME>
(1~{S},3~{E})-3-[2-[(1~{R},3~{a}~{S},7~{a}~{R})-7~{a}-methyl-1-[(~{E},1~{R},4~{S})-1,4,5-trimethylhex-2-enyl]-2,3,3~{a},5,6,7-hexahydro-1~{H}-inden-4-ylidene]ethylidene]-4-methylene-cyclohexanol

> <PUBCHEM_IUPAC_INCHI>
InChI=1S/C28H44O/c1-19(2)20(3)9-10-22(5)26-15-16-27-23(8-7-17-28(26,27)6)12-13-24-18-25(29)14-11-21(24)4/h9-10,12-13,19-20,22,25-27,29H,4,7-8,11,14-18H2,1-3,5-6H3/b10-9+,23-12?,24-13+/t20-,22-,25+,26-,27+,28-/m1/s1

> <PUBCHEM_IUPAC_INCHIKEY>
MECHNRXZTMCUDQ-ICMVBIGMSA-N

> <PUBCHEM_XLOGP3_AA>
7.4

> <PUBCHEM_EXACT_MASS>
396.339

> <PUBCHEM_MOLECULAR_FORMULA>
C28H44O

> <PUBCHEM_MOLECULAR_WEIGHT>
396.659

> <PUBCHEM_OPENEYE_CAN_SMILES>
CC(C)C(C)C=CC(C)C1CCC2C1(CCCC2=CC=C3CC(CCC3=C)O)C

> <PUBCHEM_OPENEYE_ISO_SMILES>
C[C@H](/C=C/[C@@H](C)C(C)C)[C@H]1CC[C@@H]2[C@@]1(CCCC2=C/C=C/3\C[C@H](CCC3=C)O)C

> <PUBCHEM_CACTVS_TPSA>
20.2

> <PUBCHEM_MONOISOTOPIC_WEIGHT>
396.339

> <PUBCHEM_TOTAL_CHARGE>
0

> <PUBCHEM_HEAVY_ATOM_COUNT>
29

> <PUBCHEM_ATOM_DEF_STEREO_COUNT>
6

> <PUBCHEM_ATOM_UDEF_STEREO_COUNT>
0

> <PUBCHEM_BOND_DEF_STEREO_COUNT>
2

> <PUBCHEM_BOND_UDEF_STEREO_COUNT>
1

> <PUBCHEM_ISOTOPIC_ATOM_COUNT>
0

> <PUBCHEM_COMPONENT_COUNT>
1

> <PUBCHEM_CACTVS_TAUTO_COUNT>
-1

> <PUBCHEM_COORDINATE_TYPE>
1
5
255

> <PUBCHEM_BONDANNOTATIONS>
24  1  5
18  22  6
2  10  5
3  30  6
4  31  6
8  13  6
9  15  1

$$$$
8404
  -OEChem-02061913072D

 10 11  0     0  0  0  0  0  0999 V2000
    2.0000    0.5000    0.0000 C   0  0  0  0  0  0  0  0  0  0  0  0
    2.0000   -0.5000    0.0000 C   0  0  0  0  0  0  0  0  0  0  0  0
    2.8660    1.0000    0.0000 C   0  0  0  0  0  0  0  0  0  0  0  0
    2.8660   -1.0000    0.0000 C   0  0  0  0  0  0  0  0  0  0  0  0
    3.7320    0.5000    0.0000 C   0  0  0  0  0  0  0  0  0  0  0  0
    3.7320   -0.5000    0.0000 C   0  0  0  0  0  0  0  0  0  0  0  0
    4.6260    1.0347    0.0000 C   0  0  0  0  0  0  0  0  0  0  0  0
    4.6260   -1.0347    0.0000 C   0  0  0  0  0  0  0  0  0  0  0  0
    5.5321   -0.5208    0.0000 C   0  0  0  0  0  0  0  0  0  0  0  0
    5.5321    0.5208    0.0000 C   0  0  0  0  0  0  0  0  0  0  0  0
  1  2  1  0  0  0  0
  1  3  1  0  0  0  0
  2  4  1  0  0  0  0
  3  5  1  0  0  0  0
  4  6  1  0  0  0  0
  5  6  1  0  0  0  0
  5  7  2  0  0  0  0
  6  8  2  0  0  0  0
  7 10  1  0  0  0  0
  8  9  1  0  0  0  0
  9 10  2  0  0  0  0
M  END
> <PUBCHEM_COMPOUND_CID>
8404

> <PUBCHEM_COMPOUND_CANONICALIZED>
1

> <PUBCHEM_CACTVS_COMPLEXITY>
92.6

> <PUBCHEM_CACTVS_HBOND_ACCEPTOR>
0

> <PUBCHEM_CACTVS_HBOND_DONOR>
0

> <PUBCHEM_CACTVS_ROTATABLE_BOND>
0

> <PUBCHEM_CACTVS_SUBSKEYS>
AAADccBwAAAAAAAAAAAAAAAAAAAAAAAAAAAwYAAAAAAAAADBAAAAGAAAAAAADACAGAAwAIAAAACAAiBCAAACAAAgAAAIiAAAAIgIICKAERCAIAAggAAIiAcAgIAOgAAAAAAQAAAAAAAAACAAAAAAAAAAAA==

> <PUBCHEM_IUPAC_OPENEYE_NAME>
tetralin

> <PUBCHEM_IUPAC_CAS_NAME>
1,2,3,4-tetrahydronaphthalene

> <PUBCHEM_IUPAC_NAME>
1,2,3,4-tetrahydronaphthalene

> <PUBCHEM_IUPAC_SYSTEMATIC_NAME>
1,2,3,4-tetrahydronaphthalene

> <PUBCHEM_IUPAC_TRADITIONAL_NAME>
tetralin

> <PUBCHEM_IUPAC_INCHI>
InChI=1S/C10H12/c1-2-6-10-8-4-3-7-9(10)5-1/h1-2,5-6H,3-4,7-8H2

> <PUBCHEM_IUPAC_INCHIKEY>
CXWXQJXEFPUFDZ-UHFFFAOYSA-N

> <PUBCHEM_XLOGP3>
3.5

> <PUBCHEM_EXACT_MASS>
132.094

> <PUBCHEM_MOLECULAR_FORMULA>
C10H12

> <PUBCHEM_MOLECULAR_WEIGHT>
132.206

> <PUBCHEM_OPENEYE_CAN_SMILES>
C1CCC2=CC=CC=C2C1

> <PUBCHEM_OPENEYE_ISO_SMILES>
C1CCC2=CC=CC=C2C1

> <PUBCHEM_CACTVS_TPSA>
0

> <PUBCHEM_MONOISOTOPIC_WEIGHT>
132.094

> <PUBCHEM_TOTAL_CHARGE>
0

> <PUBCHEM_HEAVY_ATOM_COUNT>
10

> <PUBCHEM_ATOM_DEF_STEREO_COUNT>
0

> <PUBCHEM_ATOM_UDEF_STEREO_COUNT>
0

> <PUBCHEM_BOND_DEF_STEREO_COUNT>
0

> <PUBCHEM_BOND_UDEF_STEREO_COUNT>
0

> <PUBCHEM_ISOTOPIC_ATOM_COUNT>
0

> <PUBCHEM_COMPONENT_COUNT>
1

> <PUBCHEM_CACTVS_TAUTO_COUNT>
-1

> <PUBCHEM_COORDINATE_TYPE>
1
5
255

> <PUBCHEM_BONDANNOTATIONS>
5  6  8
5  7  8
6  8  8
7  10  8
8  9  8
9  10  8

$$$$
3061
  -OEChem-02061913062D

 54 61  0     1  0  0  0  0  0999 V2000
   18.3182   -1.3888    0.0000 O   0  0  0  0  0  0  0  0  0  0  0  0
   12.9292   -2.4619    0.0000 O   0  0  0  0  0  0  0  0  0  0  0  0
   19.5591    3.4894    0.0000 O   0  0  0  0  0  0  0  0  0  0  0  0
   12.0632   -0.9619    0.0000 O   0  0  0  0  0  0  0  0  0  0  0  0
   21.3186    3.7719    0.0000 O   0  0  0  0  0  0  0  0  0  0  0  0
    9.4651   -2.4619    0.0000 O   0  0  0  0  0  0  0  0  0  0  0  0
    9.4651   -0.4619    0.0000 O   0  0  0  0  0  0  0  0  0  0  0  0
    7.7331   -0.4619    0.0000 O   0  0  0  0  0  0  0  0  0  0  0  0
    6.0010   -2.4619    0.0000 O   0  0  0  0  0  0  0  0  0  0  0  0
    7.7331   -3.4619    0.0000 O   0  0  0  0  0  0  0  0  0  0  0  0
    4.2690   -2.4619    0.0000 O   0  0  0  0  0  0  0  0  0  0  0  0
    4.2690    0.5381    0.0000 O   0  0  0  0  0  0  0  0  0  0  0  0
    2.5369   -0.4619    0.0000 O   0  0  0  0  0  0  0  0  0  0  0  0
   18.3144   -0.3888    0.0000 C   0  0  3  0  0  0  0  0  0  0  0  0
   17.4503   -0.8921    0.0000 C   0  0  3  0  0  0  0  0  0  0  0  0
   16.5823   -0.3954    0.0000 C   0  0  3  0  0  0  0  0  0  0  0  0
   18.3105    0.6112    0.0000 C   0  0  3  0  0  0  0  0  0  0  0  0
   15.6743   -0.9058    0.0000 C   0  0  3  0  0  0  0  0  0  0  0  0
   15.6703   -1.9474    0.0000 C   0  0  3  0  0  0  0  0  0  0  0  0
   16.5785    0.6046    0.0000 C   0  0  0  0  0  0  0  0  0  0  0  0
   17.4426    1.1079    0.0000 C   0  0  0  0  0  0  0  0  0  0  0  0
   19.2556    0.9196    0.0000 C   0  0  3  0  0  0  0  0  0  0  0  0
   17.4704   -1.9335    0.0000 C   0  0  0  0  0  0  0  0  0  0  0  0
   19.2618   -0.6898    0.0000 C   0  0  0  0  0  0  0  0  0  0  0  0
   16.5744   -2.4647    0.0000 C   0  0  0  0  0  0  0  0  0  0  0  0
   19.8423    0.1171    0.0000 C   0  0  0  0  0  0  0  0  0  0  0  0
   14.7453   -0.3453    0.0000 C   0  0  0  0  0  0  0  0  0  0  0  0
   14.7370   -2.5007    0.0000 C   0  0  0  0  0  0  0  0  0  0  0  0
   18.3067    1.6112    0.0000 C   0  0  0  0  0  0  0  0  0  0  0  0
   15.6782    0.0942    0.0000 C   0  0  0  0  0  0  0  0  0  0  0  0
   13.7994   -0.8769    0.0000 C   0  0  0  0  0  0  0  0  0  0  0  0
   13.7953   -1.9619    0.0000 C   0  0  3  0  0  0  0  0  0  0  0  0
   19.5626    1.8713    0.0000 C   0  0  0  0  0  0  0  0  0  0  0  0
   18.9731    2.6791    0.0000 C   0  0  0  0  0  0  0  0  0  0  0  0
   20.5130    2.1824    0.0000 C   0  0  0  0  0  0  0  0  0  0  0  0
   12.0632   -1.9619    0.0000 C   0  0  3  0  0  0  0  0  0  0  0  0
   20.5108    3.1824    0.0000 C   0  0  0  0  0  0  0  0  0  0  0  0
   11.1972   -2.4619    0.0000 C   0  0  0  0  0  0  0  0  0  0  0  0
   10.3312   -1.9619    0.0000 C   0  0  3  0  0  0  0  0  0  0  0  0
   11.1972   -0.4619    0.0000 C   0  0  3  0  0  0  0  0  0  0  0  0
   10.3312   -0.9619    0.0000 C   0  0  3  0  0  0  0  0  0  0  0  0
   11.1972    0.5381    0.0000 C   0  0  0  0  0  0  0  0  0  0  0  0
    8.5991   -0.9619    0.0000 C   0  0  3  0  0  0  0  0  0  0  0  0
    8.5991   -1.9619    0.0000 C   0  0  0  0  0  0  0  0  0  0  0  0
    7.7331   -2.4619    0.0000 C   0  0  3  0  0  0  0  0  0  0  0  0
    6.8671   -0.9619    0.0000 C   0  0  3  0  0  0  0  0  0  0  0  0
    6.8671   -1.9619    0.0000 C   0  0  3  0  0  0  0  0  0  0  0  0
    6.0010   -0.4619    0.0000 C   0  0  0  0  0  0  0  0  0  0  0  0
    5.1350   -1.9619    0.0000 C   0  0  3  0  0  0  0  0  0  0  0  0
    5.1350   -0.9619    0.0000 C   0  0  0  0  0  0  0  0  0  0  0  0
    4.2690   -0.4619    0.0000 C   0  0  3  0  0  0  0  0  0  0  0  0
    3.4030   -1.9619    0.0000 C   0  0  3  0  0  0  0  0  0  0  0  0
    3.4030   -0.9619    0.0000 C   0  0  3  0  0  0  0  0  0  0  0  0
    2.5369   -2.4619    0.0000 C   0  0  0  0  0  0  0  0  0  0  0  0
  1 14  1  0  0  0  0
  2 32  1  0  0  0  0
  2 36  1  0  0  0  0
  3 34  1  0  0  0  0
  3 37  1  0  0  0  0
  4 36  1  0  0  0  0
  4 40  1  0  0  0  0
  5 37  2  0  0  0  0
  6 39  1  0  0  0  0
  7 41  1  0  0  0  0
  7 43  1  0  0  0  0
  8 43  1  0  0  0  0
  8 46  1  0  0  0  0
  9 47  1  0  0  0  0
  9 49  1  0  0  0  0
 10 45  1  0  0  0  0
 11 49  1  0  0  0  0
 11 52  1  0  0  0  0
 12 51  1  0  0  0  0
 13 53  1  0  0  0  0
 14 15  1  0  0  0  0
 14 17  1  0  0  0  0
 14 24  1  0  0  0  0
 15 16  1  0  0  0  0
 15 23  1  0  0  0  0
 16 18  1  0  0  0  0
 16 20  1  0  0  0  0
 17 21  1  0  0  0  0
 17 22  1  0  0  0  0
 17 29  1  0  0  0  0
 18 19  1  0  0  0  0
 18 27  1  0  0  0  0
 18 30  1  0  0  0  0
 19 25  1  0  0  0  0
 19 28  1  0  0  0  0
 20 21  1  0  0  0  0
 22 26  1  0  0  0  0
 22 33  1  0  0  0  0
 23 25  1  0  0  0  0
 24 26  1  0  0  0  0
 27 31  1  0  0  0  0
 28 32  1  0  0  0  0
 31 32  1  0  0  0  0
 33 34  1  0  0  0  0
 33 35  2  0  0  0  0
 35 37  1  0  0  0  0
 36 38  1  0  0  0  0
 38 39  1  0  0  0  0
 39 41  1  0  0  0  0
 40 41  1  0  0  0  0
 40 42  1  0  0  0  0
 43 44  1  0  0  0  0
 44 45  1  0  0  0  0
 45 47  1  0  0  0  0
 46 47  1  0  0  0  0
 46 48  1  0  0  0  0
 49 50  1  0  0  0  0
 50 51  1  0  0  0  0
 51 53  1  0  0  0  0
 52 53  1  0  0  0  0
 52 54  1  0  0  0  0
M  END
> <PUBCHEM_COMPOUND_CID>
3061

> <PUBCHEM_COMPOUND_CANONICALIZED>
1

> <PUBCHEM_CACTVS_COMPLEXITY>
1410

> <PUBCHEM_CACTVS_HBOND_ACCEPTOR>
13

> <PUBCHEM_CACTVS_HBOND_DONOR>
5

> <PUBCHEM_CACTVS_ROTATABLE_BOND>
7

> <PUBCHEM_CACTVS_SUBSKEYS>
AAADcfB8PAAAAAAAAAAAAAAAAAAAAYIAAAA0aNECAAAAAGDAAAAAGgAACAAAD1SwgAMCCAAABgCIAiDSCAAAAAAgAAAACAAAAEgRFAIAIQAiUAAFgAAPIQPA4PwPgAAAAAAAAADAAAYAADAAAYAADAAAAA==

> <PUBCHEM_IUPAC_OPENEYE_NAME>
3-[3-[5-[5-(4,5-dihydroxy-6-methyl-tetrahydropyran-2-yl)oxy-4-hydroxy-6-methyl-tetrahydropyran-2-yl]oxy-4-hydroxy-6-methyl-tetrahydropyran-2-yl]oxy-14-hydroxy-10,13-dimethyl-1,2,3,4,5,6,7,8,9,11,12,15,16,17-tetradecahydrocyclopenta[a]phenanthren-17-yl]-2~{H}-furan-5-one

> <PUBCHEM_IUPAC_CAS_NAME>
3-[3-[[5-[[5-[(4,5-dihydroxy-6-methyl-2-oxanyl)oxy]-4-hydroxy-6-methyl-2-oxanyl]oxy]-4-hydroxy-6-methyl-2-oxanyl]oxy]-14-hydroxy-10,13-dimethyl-1,2,3,4,5,6,7,8,9,11,12,15,16,17-tetradecahydrocyclopenta[a]phenanthren-17-yl]-2~{H}-furan-5-one

> <PUBCHEM_IUPAC_NAME>
3-[3-[5-[5-(4,5-dihydroxy-6-methyloxan-2-yl)oxy-4-hydroxy-6-methyloxan-2-yl]oxy-4-hydroxy-6-methyloxan-2-yl]oxy-14-hydroxy-10,13-dimethyl-1,2,3,4,5,6,7,8,9,11,12,15,16,17-tetradecahydrocyclopenta[a]phenanthren-17-yl]-2~{H}-furan-5-one

> <PUBCHEM_IUPAC_SYSTEMATIC_NAME>
3-[10,13-dimethyl-3-[6-methyl-5-[6-methyl-5-[6-methyl-4,5-bis(oxidanyl)oxan-2-yl]oxy-4-oxidanyl-oxan-2-yl]oxy-4-oxidanyl-oxan-2-yl]oxy-14-oxidanyl-1,2,3,4,5,6,7,8,9,11,12,15,16,17-tetradecahydrocyclopenta[a]phenanthren-17-yl]-2~{H}-furan-5-one

> <PUBCHEM_IUPAC_TRADITIONAL_NAME>
3-[3-[5-[5-(4,5-dihydroxy-6-methyl-tetrahydropyran-2-yl)oxy-4-hydroxy-6-methyl-tetrahydropyran-2-yl]oxy-4-hydroxy-6-methyl-tetrahydropyran-2-yl]oxy-14-hydroxy-10,13-dimethyl-1,2,3,4,5,6,7,8,9,11,12,15,16,17-tetradecahydrocyclopenta[a]phenanthren-17-yl]-2~{H}-furan-5-one

> <PUBCHEM_IUPAC_INCHI>
InChI=1S/C41H64O13/c1-20-36(46)29(42)16-34(49-20)53-38-22(3)51-35(18-31(38)44)54-37-21(2)50-33(17-30(37)43)52-25-8-11-39(4)24(15-25)6-7-28-27(39)9-12-40(5)26(10-13-41(28,40)47)23-14-32(45)48-19-23/h14,20-22,24-31,33-38,42-44,46-47H,6-13,15-19H2,1-5H3

> <PUBCHEM_IUPAC_INCHIKEY>
WDJUZGPOPHTGOT-UHFFFAOYSA-N

> <PUBCHEM_XLOGP3>
2.3

> <PUBCHEM_EXACT_MASS>
764.435

> <PUBCHEM_MOLECULAR_FORMULA>
C41H64O13

> <PUBCHEM_MOLECULAR_WEIGHT>
764.95

> <PUBCHEM_OPENEYE_CAN_SMILES>
CC1C(C(CC(O1)OC2C(OC(CC2O)OC3C(OC(CC3O)OC4CCC5(C(C4)CCC6C5CCC7(C6(CCC7C8=CC(=O)OC8)O)C)C)C)C)O)O

> <PUBCHEM_OPENEYE_ISO_SMILES>
CC1C(C(CC(O1)OC2C(OC(CC2O)OC3C(OC(CC3O)OC4CCC5(C(C4)CCC6C5CCC7(C6(CCC7C8=CC(=O)OC8)O)C)C)C)C)O)O

> <PUBCHEM_CACTVS_TPSA>
183

> <PUBCHEM_MONOISOTOPIC_WEIGHT>
764.435

> <PUBCHEM_TOTAL_CHARGE>
0

> <PUBCHEM_HEAVY_ATOM_COUNT>
54

> <PUBCHEM_ATOM_DEF_STEREO_COUNT>
0

> <PUBCHEM_ATOM_UDEF_STEREO_COUNT>
20

> <PUBCHEM_BOND_DEF_STEREO_COUNT>
0

> <PUBCHEM_BOND_UDEF_STEREO_COUNT>
0

> <PUBCHEM_ISOTOPIC_ATOM_COUNT>
0

> <PUBCHEM_COMPONENT_COUNT>
1

> <PUBCHEM_CACTVS_TAUTO_COUNT>
-1

> <PUBCHEM_COORDINATE_TYPE>
1
5
255

> <PUBCHEM_BONDANNOTATIONS>
14  1  3
45  10  3
51  12  3
53  13  3
15  23  3
16  20  3
17  29  3
18  30  3
19  25  3
32  2  3
36  2  3
22  33  3
40  42  3
46  48  3
52  54  3
39  6  3
41  7  3
43  7  3
47  9  3
49  9  3

$$$$
8418
  -OEChem-02061913072D

 14 16  0     0  0  0  0  0  0999 V2000
    5.5321    0.5000    0.0000 C   0  0  0  0  0  0  0  0  0  0  0  0
    5.5321   -0.5000    0.0000 C   0  0  0  0  0  0  0  0  0  0  0  0
    3.8000    0.5000    0.0000 C   0  0  0  0  0  0  0  0  0  0  0  0
    3.8000   -0.5000    0.0000 C   0  0  0  0  0  0  0  0  0  0  0  0
    4.6660   -1.0000    0.0000 C   0  0  0  0  0  0  0  0  0  0  0  0
    4.6660    1.0000    0.0000 C   0  0  0  0  0  0  0  0  0  0  0  0
    6.4260   -1.0347    0.0000 C   0  0  0  0  0  0  0  0  0  0  0  0
    6.4260    1.0347    0.0000 C   0  0  0  0  0  0  0  0  0  0  0  0
    2.9061   -1.0347    0.0000 C   0  0  0  0  0  0  0  0  0  0  0  0
    2.9061    1.0347    0.0000 C   0  0  0  0  0  0  0  0  0  0  0  0
    7.3321    0.5208    0.0000 C   0  0  0  0  0  0  0  0  0  0  0  0
    7.3321   -0.5208    0.0000 C   0  0  0  0  0  0  0  0  0  0  0  0
    2.0000    0.5208    0.0000 C   0  0  0  0  0  0  0  0  0  0  0  0
    2.0000   -0.5208    0.0000 C   0  0  0  0  0  0  0  0  0  0  0  0
  1  2  1  0  0  0  0
  1  6  2  0  0  0  0
  1  8  1  0  0  0  0
  2  5  2  0  0  0  0
  2  7  1  0  0  0  0
  3  4  1  0  0  0  0
  3  6  1  0  0  0  0
  3 10  2  0  0  0  0
  4  5  1  0  0  0  0
  4  9  2  0  0  0  0
  7 12  2  0  0  0  0
  8 11  2  0  0  0  0
  9 14  1  0  0  0  0
 10 13  1  0  0  0  0
 11 12  1  0  0  0  0
 13 14  2  0  0  0  0
M  END
> <PUBCHEM_COMPOUND_CID>
8418

> <PUBCHEM_COMPOUND_CANONICALIZED>
1

> <PUBCHEM_CACTVS_COMPLEXITY>
154

> <PUBCHEM_CACTVS_HBOND_ACCEPTOR>
0

> <PUBCHEM_CACTVS_HBOND_DONOR>
0

> <PUBCHEM_CACTVS_ROTATABLE_BOND>
0

> <PUBCHEM_CACTVS_SUBSKEYS>
AAADccBwAAAAAAAAAAAAAAAAAAAAAAAAAAAwYMAAAAAAAADBVAAAGAAAAAAADACAGAAwAMAAAACAAiBCAAACAAAgAAAIiAAAAIgIICKAERCAIAAggAAIiAcAgMAOwAACAAAQAACAAAQAACAAAAAAAAAAAA==

> <PUBCHEM_IUPAC_OPENEYE_NAME>
anthracene

> <PUBCHEM_IUPAC_CAS_NAME>
anthracene

> <PUBCHEM_IUPAC_NAME>
anthracene

> <PUBCHEM_IUPAC_SYSTEMATIC_NAME>
anthracene

> <PUBCHEM_IUPAC_TRADITIONAL_NAME>
anthracene

> <PUBCHEM_IUPAC_INCHI>
InChI=1S/C14H10/c1-2-6-12-10-14-8-4-3-7-13(14)9-11(12)5-1/h1-10H

> <PUBCHEM_IUPAC_INCHIKEY>
MWPLVEDNUUSJAV-UHFFFAOYSA-N

> <PUBCHEM_XLOGP3>
4.4

> <PUBCHEM_EXACT_MASS>
178.078

> <PUBCHEM_MOLECULAR_FORMULA>
C14H10

> <PUBCHEM_MOLECULAR_WEIGHT>
178.234

> <PUBCHEM_OPENEYE_CAN_SMILES>
C1=CC=C2C=C3C=CC=CC3=CC2=C1

> <PUBCHEM_OPENEYE_ISO_SMILES>
C1=CC=C2C=C3C=CC=CC3=CC2=C1

> <PUBCHEM_CACTVS_TPSA>
0

> <PUBCHEM_MONOISOTOPIC_WEIGHT>
178.078

> <PUBCHEM_TOTAL_CHARGE>
0

> <PUBCHEM_HEAVY_ATOM_COUNT>
14

> <PUBCHEM_ATOM_DEF_STEREO_COUNT>
0

> <PUBCHEM_ATOM_UDEF_STEREO_COUNT>
0

> <PUBCHEM_BOND_DEF_STEREO_COUNT>
0

> <PUBCHEM_BOND_UDEF_STEREO_COUNT>
0

> <PUBCHEM_ISOTOPIC_ATOM_COUNT>
0

> <PUBCHEM_COMPONENT_COUNT>
1

> <PUBCHEM_CACTVS_TAUTO_COUNT>
-1

> <PUBCHEM_COORDINATE_TYPE>
1
5
255

> <PUBCHEM_BONDANNOTATIONS>
1  2  8
1  6  8
1  8  8
10  13  8
11  12  8
13  14  8
2  5  8
2  7  8
3  10  8
3  4  8
3  6  8
4  5  8
4  9  8
7  12  8
8  11  8
9  14  8

$$$$
5287554
  -OEChem-02061913342D

 48 49  0     0  0  0  0  0  0999 V2000
   27.1147   -2.0000    0.0000 O   0  0  0  0  0  0  0  0  0  0  0  0
   27.1147    2.0000    0.0000 O   0  0  0  0  0  0  0  0  0  0  0  0
   15.8564   -0.5000    0.0000 C   0  0  0  0  0  0  0  0  0  0  0  0
   19.3205   -0.5000    0.0000 C   0  0  0  0  0  0  0  0  0  0  0  0
   18.4545   -1.0000    0.0000 C   0  0  0  0  0  0  0  0  0  0  0  0
   12.3923   -0.5000    0.0000 C   0  0  0  0  0  0  0  0  0  0  0  0
   22.7846   -0.5000    0.0000 C   0  0  0  0  0  0  0  0  0  0  0  0
   14.9904   -1.0000    0.0000 C   0  0  0  0  0  0  0  0  0  0  0  0
   21.9186   -1.0000    0.0000 C   0  0  0  0  0  0  0  0  0  0  0  0
   16.7224   -1.0000    0.0000 C   0  0  0  0  0  0  0  0  0  0  0  0
   11.5263   -1.0000    0.0000 C   0  0  0  0  0  0  0  0  0  0  0  0
   20.1865   -1.0000    0.0000 C   0  0  0  0  0  0  0  0  0  0  0  0
   26.2487   -0.5000    0.0000 C   0  0  0  0  0  0  0  0  0  0  0  0
   13.2583   -1.0000    0.0000 C   0  0  0  0  0  0  0  0  0  0  0  0
   25.3827   -1.0000    0.0000 C   0  0  0  0  0  0  0  0  0  0  0  0
   23.6506   -1.0000    0.0000 C   0  0  0  0  0  0  0  0  0  0  0  0
    8.9282   -0.5000    0.0000 C   0  0  0  0  0  0  0  0  0  0  0  0
   17.5885   -0.5000    0.0000 C   0  0  0  0  0  0  0  0  0  0  0  0
   14.1244   -0.5000    0.0000 C   0  0  0  0  0  0  0  0  0  0  0  0
    9.7942   -1.0000    0.0000 C   0  0  0  0  0  0  0  0  0  0  0  0
   21.0526   -0.5000    0.0000 C   0  0  0  0  0  0  0  0  0  0  0  0
   26.2487    0.5000    0.0000 C   0  0  0  0  0  0  0  0  0  0  0  0
   24.5167   -0.5000    0.0000 C   0  0  0  0  0  0  0  0  0  0  0  0
    8.0622   -1.0000    0.0000 C   0  0  0  0  0  0  0  0  0  0  0  0
   10.6603   -0.5000    0.0000 C   0  0  0  0  0  0  0  0  0  0  0  0
   27.9808   -0.5000    0.0000 C   0  0  0  0  0  0  0  0  0  0  0  0
   27.1147   -1.0000    0.0000 C   0  0  0  0  0  0  0  0  0  0  0  0
   27.9808    0.5000    0.0000 C   0  0  0  0  0  0  0  0  0  0  0  0
   27.1147    1.0000    0.0000 C   0  0  0  0  0  0  0  0  0  0  0  0
    7.1962   -0.5000    0.0000 C   0  0  0  0  0  0  0  0  0  0  0  0
    6.3301   -1.0000    0.0000 C   0  0  0  0  0  0  0  0  0  0  0  0
   16.7224   -2.0000    0.0000 C   0  0  0  0  0  0  0  0  0  0  0  0
   20.1865   -2.0000    0.0000 C   0  0  0  0  0  0  0  0  0  0  0  0
   13.2583   -2.0000    0.0000 C   0  0  0  0  0  0  0  0  0  0  0  0
    5.4641   -0.5000    0.0000 C   0  0  0  0  0  0  0  0  0  0  0  0
   23.6506   -2.0000    0.0000 C   0  0  0  0  0  0  0  0  0  0  0  0
    9.7942   -2.0000    0.0000 C   0  0  0  0  0  0  0  0  0  0  0  0
   25.3827    1.0000    0.0000 C   0  0  0  0  0  0  0  0  0  0  0  0
    4.5981   -1.0000    0.0000 C   0  0  0  0  0  0  0  0  0  0  0  0
   28.8747   -1.0347    0.0000 C   0  0  0  0  0  0  0  0  0  0  0  0
   28.8747    1.0347    0.0000 C   0  0  0  0  0  0  0  0  0  0  0  0
    6.3301   -2.0000    0.0000 C   0  0  0  0  0  0  0  0  0  0  0  0
   29.7808   -0.5208    0.0000 C   0  0  0  0  0  0  0  0  0  0  0  0
   29.7808    0.5208    0.0000 C   0  0  0  0  0  0  0  0  0  0  0  0
    3.7320   -0.5000    0.0000 C   0  0  0  0  0  0  0  0  0  0  0  0
    2.8660   -1.0000    0.0000 C   0  0  0  0  0  0  0  0  0  0  0  0
    2.0000   -0.5000    0.0000 C   0  0  0  0  0  0  0  0  0  0  0  0
    2.8660   -2.0000    0.0000 C   0  0  0  0  0  0  0  0  0  0  0  0
  1 27  2  0  0  0  0
  2 29  2  0  0  0  0
  3  8  1  0  0  0  0
  3 10  1  0  0  0  0
  4  5  1  0  0  0  0
  4 12  1  0  0  0  0
  5 18  1  0  0  0  0
  6 11  1  0  0  0  0
  6 14  1  0  0  0  0
  7  9  1  0  0  0  0
  7 16  1  0  0  0  0
  8 19  1  0  0  0  0
  9 21  1  0  0  0  0
 10 18  2  0  0  0  0
 10 32  1  0  0  0  0
 11 25  1  0  0  0  0
 12 21  2  0  0  0  0
 12 33  1  0  0  0  0
 13 15  1  0  0  0  0
 13 22  2  0  0  0  0
 13 27  1  0  0  0  0
 14 19  2  0  0  0  0
 14 34  1  0  0  0  0
 15 23  1  0  0  0  0
 16 23  2  0  0  0  0
 16 36  1  0  0  0  0
 17 20  1  0  0  0  0
 17 24  1  0  0  0  0
 20 25  2  0  0  0  0
 20 37  1  0  0  0  0
 22 29  1  0  0  0  0
 22 38  1  0  0  0  0
 24 30  1  0  0  0  0
 26 27  1  0  0  0  0
 26 28  1  0  0  0  0
 26 40  2  0  0  0  0
 28 29  1  0  0  0  0
 28 41  2  0  0  0  0
 30 31  2  0  0  0  0
 31 35  1  0  0  0  0
 31 42  1  0  0  0  0
 35 39  1  0  0  0  0
 39 45  1  0  0  0  0
 40 43  1  0  0  0  0
 41 44  1  0  0  0  0
 43 44  2  0  0  0  0
 45 46  2  0  0  0  0
 46 47  1  0  0  0  0
 46 48  1  0  0  0  0
M  END
> <PUBCHEM_COMPOUND_CID>
5287554

> <PUBCHEM_COMPOUND_CANONICALIZED>
1

> <PUBCHEM_CACTVS_COMPLEXITY>
1310

> <PUBCHEM_CACTVS_HBOND_ACCEPTOR>
2

> <PUBCHEM_CACTVS_HBOND_DONOR>
0

> <PUBCHEM_CACTVS_ROTATABLE_BOND>
20

> <PUBCHEM_CACTVS_SUBSKEYS>
AAADcfB8MAAAAAAAAAAAAAAAAAAAAAAAAAAwQAAAAAAAAACBAAAAGgAAAAAADASAmAAyAIAAAACIAqBSAAACAAAkAAAIiAEAAMgIIDKAFRCAIQAggAAIiYcJiMCOgAAAAAAQAAAAAAAAACAAAAAAAAAAAA==

> <PUBCHEM_IUPAC_OPENEYE_NAME>
2-[(2~{E},6~{E},10~{E},14~{E},18~{E},22~{E})-3,7,11,15,19,23,27-heptamethyloctacosa-2,6,10,14,18,22,26-heptaenyl]-3-methyl-naphthalene-1,4-dione

> <PUBCHEM_IUPAC_CAS_NAME>
2-[(2~{E},6~{E},10~{E},14~{E},18~{E},22~{E})-3,7,11,15,19,23,27-heptamethyloctacosa-2,6,10,14,18,22,26-heptaenyl]-3-methylnaphthalene-1,4-dione

> <PUBCHEM_IUPAC_NAME>
2-[(2~{E},6~{E},10~{E},14~{E},18~{E},22~{E})-3,7,11,15,19,23,27-heptamethyloctacosa-2,6,10,14,18,22,26-heptaenyl]-3-methylnaphthalene-1,4-dione

> <PUBCHEM_IUPAC_SYSTEMATIC_NAME>
2-[(2~{E},6~{E},10~{E},14~{E},18~{E},22~{E})-3,7,11,15,19,23,27-heptamethyloctacosa-2,6,10,14,18,22,26-heptaenyl]-3-methyl-naphthalene-1,4-dione

> <PUBCHEM_IUPAC_TRADITIONAL_NAME>
2-[(2~{E},6~{E},10~{E},14~{E},18~{E},22~{E})-3,7,11,15,19,23,27-heptamethyloctacosa-2,6,10,14,18,22,26-heptaenyl]-3-methyl-1,4-naphthoquinone

> <PUBCHEM_IUPAC_INCHI>
InChI=1S/C46H64O2/c1-34(2)18-12-19-35(3)20-13-21-36(4)22-14-23-37(5)24-15-25-38(6)26-16-27-39(7)28-17-29-40(8)32-33-42-41(9)45(47)43-30-10-11-31-44(43)46(42)48/h10-11,18,20,22,24,26,28,30-32H,12-17,19,21,23,25,27,29,33H2,1-9H3/b35-20+,36-22+,37-24+,38-26+,39-28+,40-32+

> <PUBCHEM_IUPAC_INCHIKEY>
RAKQPZMEYJZGPI-LJWNYQGCSA-N

> <PUBCHEM_XLOGP3>
14.5

> <PUBCHEM_EXACT_MASS>
648.491

> <PUBCHEM_MOLECULAR_FORMULA>
C46H64O2

> <PUBCHEM_MOLECULAR_WEIGHT>
649.016

> <PUBCHEM_OPENEYE_CAN_SMILES>
CC1=C(C(=O)C2=CC=CC=C2C1=O)CC=C(C)CCC=C(C)CCC=C(C)CCC=C(C)CCC=C(C)CCC=C(C)CCC=C(C)C

> <PUBCHEM_OPENEYE_ISO_SMILES>
CC1=C(C(=O)C2=CC=CC=C2C1=O)C/C=C(\C)/CC/C=C(\C)/CC/C=C(\C)/CC/C=C(\C)/CC/C=C(\C)/CC/C=C(\C)/CCC=C(C)C

> <PUBCHEM_CACTVS_TPSA>
34.1

> <PUBCHEM_MONOISOTOPIC_WEIGHT>
648.491

> <PUBCHEM_TOTAL_CHARGE>
0

> <PUBCHEM_HEAVY_ATOM_COUNT>
48

> <PUBCHEM_ATOM_DEF_STEREO_COUNT>
0

> <PUBCHEM_ATOM_UDEF_STEREO_COUNT>
0

> <PUBCHEM_BOND_DEF_STEREO_COUNT>
6

> <PUBCHEM_BOND_UDEF_STEREO_COUNT>
0

> <PUBCHEM_ISOTOPIC_ATOM_COUNT>
0

> <PUBCHEM_COMPONENT_COUNT>
1

> <PUBCHEM_CACTVS_TAUTO_COUNT>
-1

> <PUBCHEM_COORDINATE_TYPE>
1
5
255

> <PUBCHEM_BONDANNOTATIONS>
26  28  8
26  40  8
28  41  8
40  43  8
41  44  8
43  44  8

$$$$
6281
  -OEChem-02061913062D

 54 61  0     1  0  0  0  0  0999 V2000
   18.3182   -1.3888    0.0000 O   0  0  0  0  0  0  0  0  0  0  0  0
   12.9292   -2.4619    0.0000 O   0  0  0  0  0  0  0  0  0  0  0  0
   19.5591    3.4894    0.0000 O   0  0  0  0  0  0  0  0  0  0  0  0
   12.0632   -0.9619    0.0000 O   0  0  0  0  0  0  0  0  0  0  0  0
   21.3186    3.7719    0.0000 O   0  0  0  0  0  0  0  0  0  0  0  0
    9.4651   -2.4619    0.0000 O   0  0  0  0  0  0  0  0  0  0  0  0
    9.4651   -0.4619    0.0000 O   0  0  0  0  0  0  0  0  0  0  0  0
    7.7331   -0.4619    0.0000 O   0  0  0  0  0  0  0  0  0  0  0  0
    6.0010   -2.4619    0.0000 O   0  0  0  0  0  0  0  0  0  0  0  0
    7.7331   -3.4619    0.0000 O   0  0  0  0  0  0  0  0  0  0  0  0
    4.2690   -2.4619    0.0000 O   0  0  0  0  0  0  0  0  0  0  0  0
    4.2690    0.5381    0.0000 O   0  0  0  0  0  0  0  0  0  0  0  0
    2.5369   -0.4619    0.0000 O   0  0  0  0  0  0  0  0  0  0  0  0
   18.3144   -0.3888    0.0000 C   0  0  1  0  0  0  0  0  0  0  0  0
   17.4503   -0.8921    0.0000 C   0  0  1  0  0  0  0  0  0  0  0  0
   16.5823   -0.3954    0.0000 C   0  0  1  0  0  0  0  0  0  0  0  0
   18.3105    0.6112    0.0000 C   0  0  2  0  0  0  0  0  0  0  0  0
   15.6743   -0.9058    0.0000 C   0  0  2  0  0  0  0  0  0  0  0  0
   15.6703   -1.9474    0.0000 C   0  0  2  0  0  0  0  0  0  0  0  0
   16.5785    0.6046    0.0000 C   0  0  0  0  0  0  0  0  0  0  0  0
   17.4426    1.1079    0.0000 C   0  0  0  0  0  0  0  0  0  0  0  0
   19.2556    0.9196    0.0000 C   0  0  1  0  0  0  0  0  0  0  0  0
   17.4704   -1.9335    0.0000 C   0  0  0  0  0  0  0  0  0  0  0  0
   19.2618   -0.6898    0.0000 C   0  0  0  0  0  0  0  0  0  0  0  0
   16.5744   -2.4647    0.0000 C   0  0  0  0  0  0  0  0  0  0  0  0
   19.8423    0.1171    0.0000 C   0  0  0  0  0  0  0  0  0  0  0  0
   14.7453   -0.3453    0.0000 C   0  0  0  0  0  0  0  0  0  0  0  0
   14.7370   -2.5007    0.0000 C   0  0  0  0  0  0  0  0  0  0  0  0
   18.3067    1.6112    0.0000 C   0  0  0  0  0  0  0  0  0  0  0  0
   15.6782    0.0942    0.0000 C   0  0  0  0  0  0  0  0  0  0  0  0
   13.7994   -0.8769    0.0000 C   0  0  0  0  0  0  0  0  0  0  0  0
   13.7953   -1.9619    0.0000 C   0  0  2  0  0  0  0  0  0  0  0  0
   19.5626    1.8713    0.0000 C   0  0  0  0  0  0  0  0  0  0  0  0
   18.9731    2.6791    0.0000 C   0  0  0  0  0  0  0  0  0  0  0  0
   20.5130    2.1824    0.0000 C   0  0  0  0  0  0  0  0  0  0  0  0
   12.0632   -1.9619    0.0000 C   0  0  2  0  0  0  0  0  0  0  0  0
   20.5108    3.1824    0.0000 C   0  0  0  0  0  0  0  0  0  0  0  0
   11.1972   -2.4619    0.0000 C   0  0  0  0  0  0  0  0  0  0  0  0
   10.3312   -1.9619    0.0000 C   0  0  1  0  0  0  0  0  0  0  0  0
   11.1972   -0.4619    0.0000 C   0  0  1  0  0  0  0  0  0  0  0  0
   10.3312   -0.9619    0.0000 C   0  0  1  0  0  0  0  0  0  0  0  0
   11.1972    0.5381    0.0000 C   0  0  0  0  0  0  0  0  0  0  0  0
    8.5991   -0.9619    0.0000 C   0  0  2  0  0  0  0  0  0  0  0  0
    8.5991   -1.9619    0.0000 C   0  0  0  0  0  0  0  0  0  0  0  0
    7.7331   -2.4619    0.0000 C   0  0  1  0  0  0  0  0  0  0  0  0
    6.8671   -0.9619    0.0000 C   0  0  1  0  0  0  0  0  0  0  0  0
    6.8671   -1.9619    0.0000 C   0  0  1  0  0  0  0  0  0  0  0  0
    6.0010   -0.4619    0.0000 C   0  0  0  0  0  0  0  0  0  0  0  0
    5.1350   -1.9619    0.0000 C   0  0  2  0  0  0  0  0  0  0  0  0
    5.1350   -0.9619    0.0000 C   0  0  0  0  0  0  0  0  0  0  0  0
    4.2690   -0.4619    0.0000 C   0  0  1  0  0  0  0  0  0  0  0  0
    3.4030   -1.9619    0.0000 C   0  0  1  0  0  0  0  0  0  0  0  0
    3.4030   -0.9619    0.0000 C   0  0  1  0  0  0  0  0  0  0  0  0
    2.5369   -2.4619    0.0000 C   0  0  0  0  0  0  0  0  0  0  0  0
 14  1  1  1  0  0  0
 32  2  1  1  0  0  0
 36  2  1  1  0  0  0
  3 34  1  0  0  0  0
  3 37  1  0  0  0  0
  4 36  1  0  0  0  0
  4 40  1  0  0  0  0
  5 37  2  0  0  0  0
 39  6  1  6  0  0  0
 41  7  1  6  0  0  0
 43  7  1  1  0  0  0
  8 43  1  0  0  0  0
  8 46  1  0  0  0  0
 47  9  1  6  0  0  0
 49  9  1  6  0  0  0
 45 10  1  6  0  0  0
 11 49  1  0  0  0  0
 11 52  1  0  0  0  0
 51 12  1  1  0  0  0
 53 13  1  1  0  0  0
 14 15  1  0  0  0  0
 14 17  1  0  0  0  0
 14 24  1  0  0  0  0
 15 16  1  0  0  0  0
 15 23  1  0  0  0  0
 16 18  1  0  0  0  0
 16 20  1  0  0  0  0
 17 21  1  0  0  0  0
 17 22  1  0  0  0  0
 17 29  1  1  0  0  0
 18 19  1  0  0  0  0
 18 27  1  0  0  0  0
 18 30  1  1  0  0  0
 19 25  1  0  0  0  0
 19 28  1  0  0  0  0
 20 21  1  0  0  0  0
 22 26  1  0  0  0  0
 22 33  1  6  0  0  0
 23 25  1  0  0  0  0
 24 26  1  0  0  0  0
 27 31  1  0  0  0  0
 28 32  1  0  0  0  0
 31 32  1  0  0  0  0
 33 34  1  0  0  0  0
 33 35  2  0  0  0  0
 35 37  1  0  0  0  0
 36 38  1  0  0  0  0
 38 39  1  0  0  0  0
 39 41  1  0  0  0  0
 40 41  1  0  0  0  0
 40 42  1  1  0  0  0
 43 44  1  0  0  0  0
 44 45  1  0  0  0  0
 45 47  1  0  0  0  0
 46 47  1  0  0  0  0
 46 48  1  1  0  0  0
 49 50  1  0  0  0  0
 50 51  1  0  0  0  0
 51 53  1  0  0  0  0
 52 53  1  0  0  0  0
 52 54  1  6  0  0  0
M  END
> <PUBCHEM_COMPOUND_CID>
6281

> <PUBCHEM_COMPOUND_CANONICALIZED>
1

> <PUBCHEM_CACTVS_COMPLEXITY>
1410

> <PUBCHEM_CACTVS_HBOND_ACCEPTOR>
13

> <PUBCHEM_CACTVS_HBOND_DONOR>
5

> <PUBCHEM_CACTVS_ROTATABLE_BOND>
7

> <PUBCHEM_CACTVS_SUBSKEYS>
AAADcfB8PAAAAAAAAAAAAAAAAAAAAYIAAAA0aNECAAAAAGDAAAAAGgAACAAAD1SwgAMCCAAABgCIAiDSCAAAAAAgAAAACAAAAEgRFAIAIQAiUAAFgAAPIQPA4PwPgAAAAAAAAADAAAYAADAAAYAADAAAAA==

> <PUBCHEM_IUPAC_OPENEYE_NAME>
3-[(3~{S},5~{R},8~{R},9~{S},10~{S},13~{R},14~{S},17~{S})-3-[(2~{R},4~{S},5~{S},6~{R})-5-[(2~{S},4~{S},5~{S},6~{R})-5-[(2~{S},4~{S},5~{S},6~{R})-4,5-dihydroxy-6-methyl-tetrahydropyran-2-yl]oxy-4-hydroxy-6-methyl-tetrahydropyran-2-yl]oxy-4-hydroxy-6-methyl-tetrahydropyran-2-yl]oxy-14-hydroxy-10,13-dimethyl-1,2,3,4,5,6,7,8,9,11,12,15,16,17-tetradecahydrocyclopenta[a]phenanthren-17-yl]-2~{H}-furan-5-one

> <PUBCHEM_IUPAC_CAS_NAME>
3-[(3~{S},5~{R},8~{R},9~{S},10~{S},13~{R},14~{S},17~{S})-3-[[(2~{R},4~{S},5~{S},6~{R})-5-[[(2~{S},4~{S},5~{S},6~{R})-5-[[(2~{S},4~{S},5~{S},6~{R})-4,5-dihydroxy-6-methyl-2-oxanyl]oxy]-4-hydroxy-6-methyl-2-oxanyl]oxy]-4-hydroxy-6-methyl-2-oxanyl]oxy]-14-hydroxy-10,13-dimethyl-1,2,3,4,5,6,7,8,9,11,12,15,16,17-tetradecahydrocyclopenta[a]phenanthren-17-yl]-2~{H}-furan-5-one

> <PUBCHEM_IUPAC_NAME>
3-[(3~{S},5~{R},8~{R},9~{S},10~{S},13~{R},14~{S},17~{S})-3-[(2~{R},4~{S},5~{S},6~{R})-5-[(2~{S},4~{S},5~{S},6~{R})-5-[(2~{S},4~{S},5~{S},6~{R})-4,5-dihydroxy-6-methyloxan-2-yl]oxy-4-hydroxy-6-methyloxan-2-yl]oxy-4-hydroxy-6-methyloxan-2-yl]oxy-14-hydroxy-10,13-dimethyl-1,2,3,4,5,6,7,8,9,11,12,15,16,17-tetradecahydrocyclopenta[a]phenanthren-17-yl]-2~{H}-furan-5-one

> <PUBCHEM_IUPAC_SYSTEMATIC_NAME>
3-[(3~{S},5~{R},8~{R},9~{S},10~{S},13~{R},14~{S},17~{S})-10,13-dimethyl-3-[(2~{R},4~{S},5~{S},6~{R})-6-methyl-5-[(2~{S},4~{S},5~{S},6~{R})-6-methyl-5-[(2~{S},4~{S},5~{S},6~{R})-6-methyl-4,5-bis(oxidanyl)oxan-2-yl]oxy-4-oxidanyl-oxan-2-yl]oxy-4-oxidanyl-oxan-2-yl]oxy-14-oxidanyl-1,2,3,4,5,6,7,8,9,11,12,15,16,17-tetradecahydrocyclopenta[a]phenanthren-17-yl]-2~{H}-furan-5-one

> <PUBCHEM_IUPAC_TRADITIONAL_NAME>
3-[(3~{S},5~{R},8~{R},9~{S},10~{S},13~{R},14~{S},17~{S})-3-[(2~{R},4~{S},5~{S},6~{R})-5-[(2~{S},4~{S},5~{S},6~{R})-5-[(2~{S},4~{S},5~{S},6~{R})-4,5-dihydroxy-6-methyl-tetrahydropyran-2-yl]oxy-4-hydroxy-6-methyl-tetrahydropyran-2-yl]oxy-4-hydroxy-6-methyl-tetrahydropyran-2-yl]oxy-14-hydroxy-10,13-dimethyl-1,2,3,4,5,6,7,8,9,11,12,15,16,17-tetradecahydrocyclopenta[a]phenanthren-17-yl]-2~{H}-furan-5-one

> <PUBCHEM_IUPAC_INCHI>
InChI=1S/C41H64O13/c1-20-36(46)29(42)16-34(49-20)53-38-22(3)51-35(18-31(38)44)54-37-21(2)50-33(17-30(37)43)52-25-8-11-39(4)24(15-25)6-7-28-27(39)9-12-40(5)26(10-13-41(28,40)47)23-14-32(45)48-19-23/h14,20-22,24-31,33-38,42-44,46-47H,6-13,15-19H2,1-5H3/t20-,21-,22-,24-,25+,26+,27+,28-,29+,30+,31+,33+,34+,35+,36-,37-,38-,39+,40-,41+/m1/s1

> <PUBCHEM_IUPAC_INCHIKEY>
WDJUZGPOPHTGOT-ADSZZZNASA-N

> <PUBCHEM_XLOGP3>
2.3

> <PUBCHEM_EXACT_MASS>
764.435

> <PUBCHEM_MOLECULAR_FORMULA>
C41H64O13

> <PUBCHEM_MOLECULAR_WEIGHT>
764.95

> <PUBCHEM_OPENEYE_CAN_SMILES>
CC1C(C(CC(O1)OC2C(OC(CC2O)OC3C(OC(CC3O)OC4CCC5(C(C4)CCC6C5CCC7(C6(CCC7C8=CC(=O)OC8)O)C)C)C)C)O)O

> <PUBCHEM_OPENEYE_ISO_SMILES>
C[C@@H]1[C@H]([C@H](C[C@@H](O1)O[C@@H]2[C@H](O[C@H](C[C@@H]2O)O[C@@H]3[C@H](O[C@H](C[C@@H]3O)O[C@H]4CC[C@]5([C@@H](C4)CC[C@@H]6[C@@H]5CC[C@]7([C@@]6(CC[C@H]7C8=CC(=O)OC8)O)C)C)C)C)O)O

> <PUBCHEM_CACTVS_TPSA>
183

> <PUBCHEM_MONOISOTOPIC_WEIGHT>
764.435

> <PUBCHEM_TOTAL_CHARGE>
0

> <PUBCHEM_HEAVY_ATOM_COUNT>
54

> <PUBCHEM_ATOM_DEF_STEREO_COUNT>
20

> <PUBCHEM_ATOM_UDEF_STEREO_COUNT>
0

> <PUBCHEM_BOND_DEF_STEREO_COUNT>
0

> <PUBCHEM_BOND_UDEF_STEREO_COUNT>
0

> <PUBCHEM_ISOTOPIC_ATOM_COUNT>
0

> <PUBCHEM_COMPONENT_COUNT>
1

> <PUBCHEM_CACTVS_TAUTO_COUNT>
-1

> <PUBCHEM_COORDINATE_TYPE>
1
5
255

> <PUBCHEM_BONDANNOTATIONS>
14  1  5
45  10  6
51  12  5
53  13  5
15  55  5
16  56  6
17  29  5
18  30  5
19  57  5
32  2  5
36  2  5
22  33  6
40  42  5
46  48  5
52  54  6
39  6  6
41  7  6
43  7  5
47  9  6
49  9  6

$$$$
7296
  -OEChem-02061913072D

  6  6  0     0  0  0  0  0  0999 V2000
    2.8090    0.2694    0.0000 C   0  0  0  0  0  0  0  0  0  0  0  0
    2.0000   -0.3184    0.0000 C   0  0  0  0  0  0  0  0  0  0  0  0
    3.6180   -0.3184    0.0000 C   0  0  0  0  0  0  0  0  0  0  0  0
    3.3090   -1.2694    0.0000 C   0  0  0  0  0  0  0  0  0  0  0  0
    2.3090   -1.2694    0.0000 C   0  0  0  0  0  0  0  0  0  0  0  0
    2.8090    1.2694    0.0000 C   0  0  0  0  0  0  0  0  0  0  0  0
  1  2  1  0  0  0  0
  1  3  1  0  0  0  0
  1  6  1  0  0  0  0
  2  5  1  0  0  0  0
  3  4  1  0  0  0  0
  4  5  1  0  0  0  0
M  END
> <PUBCHEM_COMPOUND_CID>
7296

> <PUBCHEM_COMPOUND_CANONICALIZED>
1

> <PUBCHEM_CACTVS_COMPLEXITY>
33.3

> <PUBCHEM_CACTVS_HBOND_ACCEPTOR>
0

> <PUBCHEM_CACTVS_HBOND_DONOR>
0

> <PUBCHEM_CACTVS_ROTATABLE_BOND>
0

> <PUBCHEM_CACTVS_SUBSKEYS>
AAADccBgAAAAAAAAAAAAAAAAAAAAAYAAAAAAAAAAAAAAAAAAAAAAGAAAAAAADQCAAAACAAAAAAAAAAAAAAAAAAAAAAAAAAAAAAAAAAIAAAAAAAAAAAAAAAEAAAAOAAAAAAAAAAAAAAAAAAAAAAAAAAAAAA==

> <PUBCHEM_IUPAC_OPENEYE_NAME>
methylcyclopentane

> <PUBCHEM_IUPAC_CAS_NAME>
methylcyclopentane

> <PUBCHEM_IUPAC_NAME>
methylcyclopentane

> <PUBCHEM_IUPAC_SYSTEMATIC_NAME>
methylcyclopentane

> <PUBCHEM_IUPAC_TRADITIONAL_NAME>
methylcyclopentane

> <PUBCHEM_IUPAC_INCHI>
InChI=1S/C6H12/c1-6-4-2-3-5-6/h6H,2-5H2,1H3

> <PUBCHEM_IUPAC_INCHIKEY>
GDOPTJXRTPNYNR-UHFFFAOYSA-N

> <PUBCHEM_XLOGP3>
3.4

> <PUBCHEM_EXACT_MASS>
84.094

> <PUBCHEM_MOLECULAR_FORMULA>
C6H12

> <PUBCHEM_MOLECULAR_WEIGHT>
84.162

> <PUBCHEM_OPENEYE_CAN_SMILES>
CC1CCCC1

> <PUBCHEM_OPENEYE_ISO_SMILES>
CC1CCCC1

> <PUBCHEM_CACTVS_TPSA>
0

> <PUBCHEM_MONOISOTOPIC_WEIGHT>
84.094

> <PUBCHEM_TOTAL_CHARGE>
0

> <PUBCHEM_HEAVY_ATOM_COUNT>
6

> <PUBCHEM_ATOM_DEF_STEREO_COUNT>
0

> <PUBCHEM_ATOM_UDEF_STEREO_COUNT>
0

> <PUBCHEM_BOND_DEF_STEREO_COUNT>
0

> <PUBCHEM_BOND_UDEF_STEREO_COUNT>
0

> <PUBCHEM_ISOTOPIC_ATOM_COUNT>
0

> <PUBCHEM_COMPONENT_COUNT>
1

> <PUBCHEM_CACTVS_TAUTO_COUNT>
-1

> <PUBCHEM_COORDINATE_TYPE>
1
5
255

$$$$
4837
  -OEChem-02061913062D

  6  6  0     0  0  0  0  0  0999 V2000
    2.8660   -1.0000    0.0000 N   0  0  0  0  0  0  0  0  0  0  0  0
    2.8660    1.0000    0.0000 N   0  0  0  0  0  0  0  0  0  0  0  0
    2.0000    0.5000    0.0000 C   0  0  0  0  0  0  0  0  0  0  0  0
    2.0000   -0.5000    0.0000 C   0  0  0  0  0  0  0  0  0  0  0  0
    3.7320    0.5000    0.0000 C   0  0  0  0  0  0  0  0  0  0  0  0
    3.7320   -0.5000    0.0000 C   0  0  0  0  0  0  0  0  0  0  0  0
  1  4  1  0  0  0  0
  1  6  1  0  0  0  0
  2  3  1  0  0  0  0
  2  5  1  0  0  0  0
  3  4  1  0  0  0  0
  5  6  1  0  0  0  0
M  END
> <PUBCHEM_COMPOUND_CID>
4837

> <PUBCHEM_COMPOUND_CANONICALIZED>
1

> <PUBCHEM_CACTVS_COMPLEXITY>
26.5

> <PUBCHEM_CACTVS_HBOND_ACCEPTOR>
2

> <PUBCHEM_CACTVS_HBOND_DONOR>
2

> <PUBCHEM_CACTVS_ROTATABLE_BOND>
0

> <PUBCHEM_CACTVS_SUBSKEYS>
AAADccBjAAAAAAAAAAAAAAAAAAAAAAAAAAAsAAAAAAAAAAAAAAAAHAAQAAAAAADBAAQAAALAAAAAAAAAAAAAAAAAAAAAAIAIAAAAQAAAAAAQAAAAEACAAAAAAAAAAAAAAAAAAAAAAAAAAAAAAAAAAAAAAA==

> <PUBCHEM_IUPAC_OPENEYE_NAME>
piperazine

> <PUBCHEM_IUPAC_CAS_NAME>
piperazine

> <PUBCHEM_IUPAC_NAME>
piperazine

> <PUBCHEM_IUPAC_SYSTEMATIC_NAME>
piperazine

> <PUBCHEM_IUPAC_TRADITIONAL_NAME>
piperazine

> <PUBCHEM_IUPAC_INCHI>
InChI=1S/C4H10N2/c1-2-6-4-3-5-1/h5-6H,1-4H2

> <PUBCHEM_IUPAC_INCHIKEY>
GLUUGHFHXGJENI-UHFFFAOYSA-N

> <PUBCHEM_XLOGP3>
-1.5

> <PUBCHEM_EXACT_MASS>
86.084

> <PUBCHEM_MOLECULAR_FORMULA>
C4H10N2

> <PUBCHEM_MOLECULAR_WEIGHT>
86.138

> <PUBCHEM_OPENEYE_CAN_SMILES>
C1CNCCN1

> <PUBCHEM_OPENEYE_ISO_SMILES>
C1CNCCN1

> <PUBCHEM_CACTVS_TPSA>
24.1

> <PUBCHEM_MONOISOTOPIC_WEIGHT>
86.084

> <PUBCHEM_TOTAL_CHARGE>
0

> <PUBCHEM_HEAVY_ATOM_COUNT>
6

> <PUBCHEM_ATOM_DEF_STEREO_COUNT>
0

> <PUBCHEM_ATOM_UDEF_STEREO_COUNT>
0

> <PUBCHEM_BOND_DEF_STEREO_COUNT>
0

> <PUBCHEM_BOND_UDEF_STEREO_COUNT>
0

> <PUBCHEM_ISOTOPIC_ATOM_COUNT>
0

> <PUBCHEM_COMPONENT_COUNT>
1

> <PUBCHEM_CACTVS_TAUTO_COUNT>
-1

> <PUBCHEM_COORDINATE_TYPE>
1
5
255

$$$$
5353527
  -OEChem-02061913342D

 28 30  0     1  0  0  0  0  0999 V2000
    5.4641   -4.8465    0.0000 O   0  0  0  0  0  0  0  0  0  0  0  0
    5.4641    1.1535    0.0000 C   0  0  3  0  0  0  0  0  0  0  0  0
    6.4103    1.4582    0.0000 C   0  0  3  0  0  0  0  0  0  0  0  0
    5.4641    0.1535    0.0000 C   0  0  3  0  0  0  0  0  0  0  0  0
    6.9939    0.6535    0.0000 C   0  0  0  0  0  0  0  0  0  0  0  0
    6.4103   -0.1512    0.0000 C   0  0  0  0  0  0  0  0  0  0  0  0
    4.5981    1.6535    0.0000 C   0  0  0  0  0  0  0  0  0  0  0  0
    6.7210    2.4087    0.0000 C   0  0  3  0  0  0  0  0  0  0  0  0
    4.5981   -0.3465    0.0000 C   0  0  0  0  0  0  0  0  0  0  0  0
    5.4641    2.1535    0.0000 C   0  0  0  0  0  0  0  0  0  0  0  0
    3.7320    1.1535    0.0000 C   0  0  0  0  0  0  0  0  0  0  0  0
    3.7320    0.1535    0.0000 C   0  0  0  0  0  0  0  0  0  0  0  0
    7.6995    2.6150    0.0000 C   0  0  0  0  0  0  0  0  0  0  0  0
    6.0531    3.1530    0.0000 C   0  0  0  0  0  0  0  0  0  0  0  0
    4.5981   -1.3465    0.0000 C   0  0  0  0  0  0  0  0  0  0  0  0
    8.0102    3.5655    0.0000 C   0  0  0  0  0  0  0  0  0  0  0  0
    8.9887    3.7717    0.0000 C   0  0  0  0  0  0  0  0  0  0  0  0
    3.7320   -1.8465    0.0000 C   0  0  0  0  0  0  0  0  0  0  0  0
    9.2993    4.7222    0.0000 C   0  0  0  0  0  0  0  0  0  0  0  0
    3.7320   -2.8465    0.0000 C   0  0  0  0  0  0  0  0  0  0  0  0
    4.5981   -3.3465    0.0000 C   0  0  0  0  0  0  0  0  0  0  0  0
   10.2778    4.9284    0.0000 C   0  0  0  0  0  0  0  0  0  0  0  0
    8.6315    5.4665    0.0000 C   0  0  0  0  0  0  0  0  0  0  0  0
    2.8660   -3.3465    0.0000 C   0  0  0  0  0  0  0  0  0  0  0  0
    4.5981   -4.3465    0.0000 C   0  0  3  0  0  0  0  0  0  0  0  0
    2.8660   -4.3465    0.0000 C   0  0  0  0  0  0  0  0  0  0  0  0
    3.7320   -4.8465    0.0000 C   0  0  0  0  0  0  0  0  0  0  0  0
    2.0000   -2.8465    0.0000 C   0  0  0  0  0  0  0  0  0  0  0  0
  1 25  1  0  0  0  0
  2  3  1  0  0  0  0
  2  4  1  0  0  0  0
  2  7  1  0  0  0  0
  2 10  1  0  0  0  0
  3  5  1  0  0  0  0
  3  8  1  0  0  0  0
  4  6  1  0  0  0  0
  4  9  1  0  0  0  0
  5  6  1  0  0  0  0
  7 11  1  0  0  0  0
  8 13  1  0  0  0  0
  8 14  1  0  0  0  0
  9 12  1  0  0  0  0
  9 15  2  0  0  0  0
 11 12  1  0  0  0  0
 13 16  1  0  0  0  0
 15 18  1  0  0  0  0
 16 17  1  0  0  0  0
 17 19  1  0  0  0  0
 18 20  2  0  0  0  0
 19 22  1  0  0  0  0
 19 23  1  0  0  0  0
 20 21  1  0  0  0  0
 20 24  1  0  0  0  0
 21 25  1  0  0  0  0
 24 26  1  0  0  0  0
 24 28  2  0  0  0  0
 25 27  1  0  0  0  0
 26 27  1  0  0  0  0
M  END
> <PUBCHEM_COMPOUND_CID>
5353527

> <PUBCHEM_COMPOUND_CANONICALIZED>
1

> <PUBCHEM_CACTVS_COMPLEXITY>
610

> <PUBCHEM_CACTVS_HBOND_ACCEPTOR>
1

> <PUBCHEM_CACTVS_HBOND_DONOR>
1

> <PUBCHEM_CACTVS_ROTATABLE_BOND>
6

> <PUBCHEM_CACTVS_SUBSKEYS>
AAADcfB4IAAAAAAAAAAAAAAAAAAAAYAAAAAwYAAAAAAAAGAAAAAAGgAACAAADxSggAICAAAAAgCAAiBCAAAAAAAgAAAACAAAAAgIEAIAAQAAQAAEwAAIgAOAwMAPgAAAAAAAAAAAAAAAACAAAQAACAAAAA==

> <PUBCHEM_IUPAC_OPENEYE_NAME>
(3~{E})-3-[(2~{E})-2-[1-(1,5-dimethylhexyl)-7~{a}-methyl-2,3,3~{a},5,6,7-hexahydro-1~{H}-inden-4-ylidene]ethylidene]-4-methylene-cyclohexanol

> <PUBCHEM_IUPAC_CAS_NAME>
(3~{E})-3-[(2~{E})-2-[7~{a}-methyl-1-(6-methylheptan-2-yl)-2,3,3~{a},5,6,7-hexahydro-1~{H}-inden-4-ylidene]ethylidene]-4-methylene-1-cyclohexanol

> <PUBCHEM_IUPAC_NAME>
(3~{E})-3-[(2~{E})-2-[7~{a}-methyl-1-(6-methylheptan-2-yl)-2,3,3~{a},5,6,7-hexahydro-1~{H}-inden-4-ylidene]ethylidene]-4-methylidenecyclohexan-1-ol

> <PUBCHEM_IUPAC_SYSTEMATIC_NAME>
(3~{E})-3-[(2~{E})-2-[7~{a}-methyl-1-(6-methylheptan-2-yl)-2,3,3~{a},5,6,7-hexahydro-1~{H}-inden-4-ylidene]ethylidene]-4-methylidene-cyclohexan-1-ol

> <PUBCHEM_IUPAC_TRADITIONAL_NAME>
(3~{E})-3-[(2~{E})-2-[1-(1,5-dimethylhexyl)-7~{a}-methyl-2,3,3~{a},5,6,7-hexahydro-1~{H}-inden-4-ylidene]ethylidene]-4-methylene-cyclohexanol

> <PUBCHEM_IUPAC_INCHI>
InChI=1S/C27H44O/c1-19(2)8-6-9-21(4)25-15-16-26-22(10-7-17-27(25,26)5)12-13-23-18-24(28)14-11-20(23)3/h12-13,19,21,24-26,28H,3,6-11,14-18H2,1-2,4-5H3/b22-12+,23-13+

> <PUBCHEM_IUPAC_INCHIKEY>
QYSXJUFSXHHAJI-FWSOMWAYSA-N

> <PUBCHEM_XLOGP3_AA>
7.9

> <PUBCHEM_EXACT_MASS>
384.339

> <PUBCHEM_MOLECULAR_FORMULA>
C27H44O

> <PUBCHEM_MOLECULAR_WEIGHT>
384.648

> <PUBCHEM_OPENEYE_CAN_SMILES>
CC(C)CCCC(C)C1CCC2C1(CCCC2=CC=C3CC(CCC3=C)O)C

> <PUBCHEM_OPENEYE_ISO_SMILES>
CC(C)CCCC(C)C1CCC\2C1(CCC/C2=C\C=C\3/CC(CCC3=C)O)C

> <PUBCHEM_CACTVS_TPSA>
20.2

> <PUBCHEM_MONOISOTOPIC_WEIGHT>
384.339

> <PUBCHEM_TOTAL_CHARGE>
0

> <PUBCHEM_HEAVY_ATOM_COUNT>
28

> <PUBCHEM_ATOM_DEF_STEREO_COUNT>
0

> <PUBCHEM_ATOM_UDEF_STEREO_COUNT>
5

> <PUBCHEM_BOND_DEF_STEREO_COUNT>
2

> <PUBCHEM_BOND_UDEF_STEREO_COUNT>
0

> <PUBCHEM_ISOTOPIC_ATOM_COUNT>
0

> <PUBCHEM_COMPONENT_COUNT>
1

> <PUBCHEM_CACTVS_TAUTO_COUNT>
-1

> <PUBCHEM_COORDINATE_TYPE>
1
5
255

> <PUBCHEM_BONDANNOTATIONS>
25  1  3
2  10  3
3  5  3
4  9  3
8  14  3

$$$$
33934
  -OEChem-02061913062D

 28 28  0     0  0  0  0  0  0999 V2000
    8.0622   -3.0000    0.0000 O   0  0  0  0  0  0  0  0  0  0  0  0
   11.5263   -1.0000    0.0000 O   0  0  0  0  0  0  0  0  0  0  0  0
    8.9282   -1.5000    0.0000 O   0  0  0  0  0  0  0  0  0  0  0  0
    9.7942   -1.0000    0.0000 O   0  0  0  0  0  0  0  0  0  0  0  0
    3.7320   -2.5000    0.0000 C   0  0  0  0  0  0  0  0  0  0  0  0
   13.2583    3.0000    0.0000 C   0  0  0  0  0  0  0  0  0  0  0  0
    2.8660   -3.0000    0.0000 C   0  0  0  0  0  0  0  0  0  0  0  0
   14.1244    3.5000    0.0000 C   0  0  0  0  0  0  0  0  0  0  0  0
   13.2583    2.0000    0.0000 C   0  0  0  0  0  0  0  0  0  0  0  0
    4.5981   -3.0000    0.0000 C   0  0  0  0  0  0  0  0  0  0  0  0
    5.4641   -2.5000    0.0000 C   0  0  0  0  0  0  0  0  0  0  0  0
   12.3923    1.5000    0.0000 C   0  0  0  0  0  0  0  0  0  0  0  0
   12.3923    0.5000    0.0000 C   0  0  0  0  0  0  0  0  0  0  0  0
    6.3301   -3.0000    0.0000 C   0  0  0  0  0  0  0  0  0  0  0  0
   14.1244    4.5000    0.0000 C   0  0  0  0  0  0  0  0  0  0  0  0
   14.9904    3.0000    0.0000 C   0  0  0  0  0  0  0  0  0  0  0  0
    2.0000   -2.5000    0.0000 C   0  0  0  0  0  0  0  0  0  0  0  0
    2.8660   -4.0000    0.0000 C   0  0  0  0  0  0  0  0  0  0  0  0
    7.1962   -2.5000    0.0000 C   0  0  0  0  0  0  0  0  0  0  0  0
   11.5263    0.0000    0.0000 C   0  0  0  0  0  0  0  0  0  0  0  0
   10.6603   -2.5000    0.0000 C   0  0  0  0  0  0  0  0  0  0  0  0
    9.7942   -3.0000    0.0000 C   0  0  0  0  0  0  0  0  0  0  0  0
   10.6603   -1.5000    0.0000 C   0  0  0  0  0  0  0  0  0  0  0  0
    8.9282   -2.5000    0.0000 C   0  0  0  0  0  0  0  0  0  0  0  0
    9.7942   -4.0000    0.0000 C   0  0  0  0  0  0  0  0  0  0  0  0
   11.5263   -3.0000    0.0000 C   0  0  0  0  0  0  0  0  0  0  0  0
   10.6603   -4.5000    0.0000 C   0  0  0  0  0  0  0  0  0  0  0  0
   11.5263   -4.0000    0.0000 C   0  0  0  0  0  0  0  0  0  0  0  0
  1 19  1  0  0  0  0
  1 24  1  0  0  0  0
  2 20  1  0  0  0  0
  2 23  1  0  0  0  0
  3 24  2  0  0  0  0
  4 23  2  0  0  0  0
  5  7  1  0  0  0  0
  5 10  1  0  0  0  0
  6  8  1  0  0  0  0
  6  9  1  0  0  0  0
  7 17  1  0  0  0  0
  7 18  1  0  0  0  0
  8 15  1  0  0  0  0
  8 16  1  0  0  0  0
  9 12  1  0  0  0  0
 10 11  1  0  0  0  0
 11 14  1  0  0  0  0
 12 13  1  0  0  0  0
 13 20  1  0  0  0  0
 14 19  1  0  0  0  0
 21 22  1  0  0  0  0
 21 23  1  0  0  0  0
 21 26  2  0  0  0  0
 22 24  1  0  0  0  0
 22 25  2  0  0  0  0
 25 27  1  0  0  0  0
 26 28  1  0  0  0  0
 27 28  2  0  0  0  0
M  END
> <PUBCHEM_COMPOUND_CID>
33934

> <PUBCHEM_COMPOUND_CANONICALIZED>
1

> <PUBCHEM_CACTVS_COMPLEXITY>
390

> <PUBCHEM_CACTVS_HBOND_ACCEPTOR>
4

> <PUBCHEM_CACTVS_HBOND_DONOR>
0

> <PUBCHEM_CACTVS_ROTATABLE_BOND>
16

> <PUBCHEM_CACTVS_SUBSKEYS>
AAADcfB4OAAAAAAAAAAAAAAAAAAAAAAAAAAwAAAAAAAAAAABAAAAGgAAAAAADQCgmAIyCIAABACIAiDSCAACAAAkAAAIiAEACMgIJjKANRiCMQAkwAEIqYfLyOCOgAAAAAAQAAAAAAAAACAAAAAAAAAAAA==

> <PUBCHEM_IUPAC_OPENEYE_NAME>
bis(6-methylheptyl) benzene-1,2-dicarboxylate

> <PUBCHEM_IUPAC_CAS_NAME>
benzene-1,2-dicarboxylic acid bis(6-methylheptyl) ester

> <PUBCHEM_IUPAC_NAME>
bis(6-methylheptyl) benzene-1,2-dicarboxylate

> <PUBCHEM_IUPAC_SYSTEMATIC_NAME>
bis(6-methylheptyl) benzene-1,2-dicarboxylate

> <PUBCHEM_IUPAC_TRADITIONAL_NAME>
benzene-1,2-dicarboxylic acid bis(6-methylheptyl) ester

> <PUBCHEM_IUPAC_INCHI>
InChI=1S/C24H38O4/c1-19(2)13-7-5-11-17-27-23(25)21-15-9-10-16-22(21)24(26)28-18-12-6-8-14-20(3)4/h9-10,15-16,19-20H,5-8,11-14,17-18H2,1-4H3

> <PUBCHEM_IUPAC_INCHIKEY>
IJFPVINAQGWBRJ-UHFFFAOYSA-N

> <PUBCHEM_XLOGP3>
8.5

> <PUBCHEM_EXACT_MASS>
390.277

> <PUBCHEM_MOLECULAR_FORMULA>
C24H38O4

> <PUBCHEM_MOLECULAR_WEIGHT>
390.564

> <PUBCHEM_OPENEYE_CAN_SMILES>
CC(C)CCCCCOC(=O)C1=CC=CC=C1C(=O)OCCCCCC(C)C

> <PUBCHEM_OPENEYE_ISO_SMILES>
CC(C)CCCCCOC(=O)C1=CC=CC=C1C(=O)OCCCCCC(C)C

> <PUBCHEM_CACTVS_TPSA>
52.6

> <PUBCHEM_MONOISOTOPIC_WEIGHT>
390.277

> <PUBCHEM_TOTAL_CHARGE>
0

> <PUBCHEM_HEAVY_ATOM_COUNT>
28

> <PUBCHEM_ATOM_DEF_STEREO_COUNT>
0

> <PUBCHEM_ATOM_UDEF_STEREO_COUNT>
0

> <PUBCHEM_BOND_DEF_STEREO_COUNT>
0

> <PUBCHEM_BOND_UDEF_STEREO_COUNT>
0

> <PUBCHEM_ISOTOPIC_ATOM_COUNT>
0

> <PUBCHEM_COMPONENT_COUNT>
1

> <PUBCHEM_CACTVS_TAUTO_COUNT>
-1

> <PUBCHEM_COORDINATE_TYPE>
1
5
255

> <PUBCHEM_BONDANNOTATIONS>
21  22  8
21  26  8
22  25  8
25  27  8
26  28  8
27  28  8

$$$$
1183
  -OEChem-02061913062D

 11 11  0     0  0  0  0  0  0999 V2000
    4.2690    1.7500    0.0000 O   0  0  0  0  0  0  0  0  0  0  0  0
    2.5369    0.7500    0.0000 O   0  0  0  0  0  0  0  0  0  0  0  0
    6.0010   -2.2500    0.0000 O   0  0  0  0  0  0  0  0  0  0  0  0
    4.2690    0.7500    0.0000 C   0  0  0  0  0  0  0  0  0  0  0  0
    5.1350   -0.7500    0.0000 C   0  0  0  0  0  0  0  0  0  0  0  0
    5.1350    0.2500    0.0000 C   0  0  0  0  0  0  0  0  0  0  0  0
    3.4030    0.2500    0.0000 C   0  0  0  0  0  0  0  0  0  0  0  0
    4.2690   -1.2500    0.0000 C   0  0  0  0  0  0  0  0  0  0  0  0
    3.4030   -0.7500    0.0000 C   0  0  0  0  0  0  0  0  0  0  0  0
    6.0010   -1.2500    0.0000 C   0  0  0  0  0  0  0  0  0  0  0  0
    5.1350    2.2500    0.0000 C   0  0  0  0  0  0  0  0  0  0  0  0
  1  4  1  0  0  0  0
  1 11  1  0  0  0  0
  2  7  1  0  0  0  0
  3 10  2  0  0  0  0
  4  6  1  0  0  0  0
  4  7  2  0  0  0  0
  5  6  2  0  0  0  0
  5  8  1  0  0  0  0
  5 10  1  0  0  0  0
  7  9  1  0  0  0  0
  8  9  2  0  0  0  0
M  END
> <PUBCHEM_COMPOUND_CID>
1183

> <PUBCHEM_COMPOUND_CANONICALIZED>
1

> <PUBCHEM_CACTVS_COMPLEXITY>
135

> <PUBCHEM_CACTVS_HBOND_ACCEPTOR>
3

> <PUBCHEM_CACTVS_HBOND_DONOR>
1

> <PUBCHEM_CACTVS_ROTATABLE_BOND>
2

> <PUBCHEM_CACTVS_SUBSKEYS>
AAADccBwMAAAAAAAAAAAAAAAAAAAAAAAAAAwAAAAAAAAAAABAAAAGgAACAAADASgmAIyBoAABgCIAihSgAACCAAkIAAIiAEGiMgNJjKGNRqAcSMkwBELuYeKzBDOIAABAAAAQABAAAIAAACAAAAAAAAAAA==

> <PUBCHEM_IUPAC_OPENEYE_NAME>
4-hydroxy-3-methoxy-benzaldehyde

> <PUBCHEM_IUPAC_CAS_NAME>
4-hydroxy-3-methoxybenzaldehyde

> <PUBCHEM_IUPAC_NAME>
4-hydroxy-3-methoxybenzaldehyde

> <PUBCHEM_IUPAC_SYSTEMATIC_NAME>
3-methoxy-4-oxidanyl-benzaldehyde

> <PUBCHEM_IUPAC_TRADITIONAL_NAME>
4-hydroxy-3-methoxy-benzaldehyde

> <PUBCHEM_IUPAC_INCHI>
InChI=1S/C8H8O3/c1-11-8-4-6(5-9)2-3-7(8)10/h2-5,10H,1H3

> <PUBCHEM_IUPAC_INCHIKEY>
MWOOGOJBHIARFG-UHFFFAOYSA-N

> <PUBCHEM_XLOGP3>
1.2

> <PUBCHEM_EXACT_MASS>
152.047

> <PUBCHEM_MOLECULAR_FORMULA>
C8H8O3

> <PUBCHEM_MOLECULAR_WEIGHT>
152.149

> <PUBCHEM_OPENEYE_CAN_SMILES>
COC1=C(C=CC(=C1)C=O)O

> <PUBCHEM_OPENEYE_ISO_SMILES>
COC1=C(C=CC(=C1)C=O)O

> <PUBCHEM_CACTVS_TPSA>
46.5

> <PUBCHEM_MONOISOTOPIC_WEIGHT>
152.047

> <PUBCHEM_TOTAL_CHARGE>
0

> <PUBCHEM_HEAVY_ATOM_COUNT>
11

> <PUBCHEM_ATOM_DEF_STEREO_COUNT>
0

> <PUBCHEM_ATOM_UDEF_STEREO_COUNT>
0

> <PUBCHEM_BOND_DEF_STEREO_COUNT>
0

> <PUBCHEM_BOND_UDEF_STEREO_COUNT>
0

> <PUBCHEM_ISOTOPIC_ATOM_COUNT>
0

> <PUBCHEM_COMPONENT_COUNT>
1

> <PUBCHEM_CACTVS_TAUTO_COUNT>
-1

> <PUBCHEM_COORDINATE_TYPE>
1
5
255

> <PUBCHEM_BONDANNOTATIONS>
4  6  8
4  7  8
5  6  8
5  8  8
7  9  8
8  9  8

$$$$
31275
  -OEChem-02061913062D

  6  6  0     0  0  0  0  0  0999 V2000
    2.8660   -1.0000    0.0000 O   0  0  0  0  0  0  0  0  0  0  0  0
    2.8660    1.0000    0.0000 O   0  0  0  0  0  0  0  0  0  0  0  0
    2.0000   -0.5000    0.0000 C   0  0  0  0  0  0  0  0  0  0  0  0
    2.0000    0.5000    0.0000 C   0  0  0  0  0  0  0  0  0  0  0  0
    3.7320   -0.5000    0.0000 C   0  0  0  0  0  0  0  0  0  0  0  0
    3.7320    0.5000    0.0000 C   0  0  0  0  0  0  0  0  0  0  0  0
  1  3  1  0  0  0  0
  1  5  1  0  0  0  0
  2  4  1  0  0  0  0
  2  6  1  0  0  0  0
  3  4  1  0  0  0  0
  5  6  1  0  0  0  0
M  END
> <PUBCHEM_COMPOUND_CID>
31275

> <PUBCHEM_COMPOUND_CANONICALIZED>
1

> <PUBCHEM_CACTVS_COMPLEXITY>
26.5

> <PUBCHEM_CACTVS_HBOND_ACCEPTOR>
2

> <PUBCHEM_CACTVS_HBOND_DONOR>
0

> <PUBCHEM_CACTVS_ROTATABLE_BOND>
0

> <PUBCHEM_CACTVS_SUBSKEYS>
AAADccBgMAAAAAAAAAAAAAAAAAAAAAAAAAAkAAAAAAAAAAAAAAAAGgAAAAAAAACggAIAAAAABAAAAAAAAAAAAAAAAAAAAAAAAAABAAAAAAACAAAAAAACAAAAAAAAAAAAAAAAAAAAAAAAAAAAAAAAAAAAAA==

> <PUBCHEM_IUPAC_OPENEYE_NAME>
1,4-dioxane

> <PUBCHEM_IUPAC_CAS_NAME>
1,4-dioxane

> <PUBCHEM_IUPAC_NAME>
1,4-dioxane

> <PUBCHEM_IUPAC_SYSTEMATIC_NAME>
1,4-dioxane

> <PUBCHEM_IUPAC_TRADITIONAL_NAME>
1,4-dioxane

> <PUBCHEM_IUPAC_INCHI>
InChI=1S/C4H8O2/c1-2-6-4-3-5-1/h1-4H2

> <PUBCHEM_IUPAC_INCHIKEY>
RYHBNJHYFVUHQT-UHFFFAOYSA-N

> <PUBCHEM_XLOGP3>
-0.3

> <PUBCHEM_EXACT_MASS>
88.052

> <PUBCHEM_MOLECULAR_FORMULA>
C4H8O2

> <PUBCHEM_MOLECULAR_WEIGHT>
88.106

> <PUBCHEM_OPENEYE_CAN_SMILES>
C1COCCO1

> <PUBCHEM_OPENEYE_ISO_SMILES>
C1COCCO1

> <PUBCHEM_CACTVS_TPSA>
18.5

> <PUBCHEM_MONOISOTOPIC_WEIGHT>
88.052

> <PUBCHEM_TOTAL_CHARGE>
0

> <PUBCHEM_HEAVY_ATOM_COUNT>
6

> <PUBCHEM_ATOM_DEF_STEREO_COUNT>
0

> <PUBCHEM_ATOM_UDEF_STEREO_COUNT>
0

> <PUBCHEM_BOND_DEF_STEREO_COUNT>
0

> <PUBCHEM_BOND_UDEF_STEREO_COUNT>
0

> <PUBCHEM_ISOTOPIC_ATOM_COUNT>
0

> <PUBCHEM_COMPONENT_COUNT>
1

> <PUBCHEM_CACTVS_TAUTO_COUNT>
-1

> <PUBCHEM_COORDINATE_TYPE>
1
5
255

$$$$
11443
  -OEChem-02061913072D

 13 13  0     0  0  0  0  0  0999 V2000
    5.4641    3.0000    0.0000 O   0  0  0  0  0  0  0  0  0  0  0  0
    5.4641   -3.0000    0.0000 O   0  0  0  0  0  0  0  0  0  0  0  0
    3.7320    2.0000    0.0000 N   0  0  0  0  0  0  0  0  0  0  0  0
    5.4641   -1.0000    0.0000 N   0  0  0  0  0  0  0  0  0  0  0  0
    2.8660    0.5000    0.0000 C   0  0  0  0  0  0  0  0  0  0  0  0
    3.7320    1.0000    0.0000 C   0  0  0  0  0  0  0  0  0  0  0  0
    2.8660   -0.5000    0.0000 C   0  0  0  0  0  0  0  0  0  0  0  0
    4.5981    0.5000    0.0000 C   0  0  0  0  0  0  0  0  0  0  0  0
    4.5981   -0.5000    0.0000 C   0  0  0  0  0  0  0  0  0  0  0  0
    3.7320   -1.0000    0.0000 C   0  0  0  0  0  0  0  0  0  0  0  0
    2.0000    1.0000    0.0000 C   0  0  0  0  0  0  0  0  0  0  0  0
    4.5981    2.5000    0.0000 C   0  0  0  0  0  0  0  0  0  0  0  0
    5.4641   -2.0000    0.0000 C   0  0  0  0  0  0  0  0  0  0  0  0
  1 12  2  0  0  0  0
  2 13  2  0  0  0  0
  3  6  1  0  0  0  0
  3 12  2  0  0  0  0
  4  9  1  0  0  0  0
  4 13  2  0  0  0  0
  5  6  2  0  0  0  0
  5  7  1  0  0  0  0
  5 11  1  0  0  0  0
  6  8  1  0  0  0  0
  7 10  2  0  0  0  0
  8  9  2  0  0  0  0
  9 10  1  0  0  0  0
M  END
> <PUBCHEM_COMPOUND_CID>
11443

> <PUBCHEM_COMPOUND_CANONICALIZED>
1

> <PUBCHEM_CACTVS_COMPLEXITY>
265

> <PUBCHEM_CACTVS_HBOND_ACCEPTOR>
4

> <PUBCHEM_CACTVS_HBOND_DONOR>
0

> <PUBCHEM_CACTVS_ROTATABLE_BOND>
2

> <PUBCHEM_CACTVS_SUBSKEYS>
AAADcYBzMAAAAAAAAAAAAAAAAAAAAAAAAAAwAAAAAAAAAAABAAAAHgAAAAAADAiBGAAywIIAAACoAiRCVACCAAAgAgAIiAAAZIgIICKA0dGAIABggAAIyAcQgAAOCAAAAAQCAAAQAAAACAQAAAAAAAAAAA==

> <PUBCHEM_IUPAC_OPENEYE_NAME>
2,4-diisocyanato-1-methyl-benzene

> <PUBCHEM_IUPAC_CAS_NAME>
2,4-diisocyanato-1-methylbenzene

> <PUBCHEM_IUPAC_NAME>
2,4-diisocyanato-1-methylbenzene

> <PUBCHEM_IUPAC_SYSTEMATIC_NAME>
2,4-diisocyanato-1-methyl-benzene

> <PUBCHEM_IUPAC_TRADITIONAL_NAME>
2,4-diisocyanato-1-methyl-benzene

> <PUBCHEM_IUPAC_INCHI>
InChI=1S/C9H6N2O2/c1-7-2-3-8(10-5-12)4-9(7)11-6-13/h2-4H,1H3

> <PUBCHEM_IUPAC_INCHIKEY>
DVKJHBMWWAPEIU-UHFFFAOYSA-N

> <PUBCHEM_XLOGP3_AA>
3.9

> <PUBCHEM_EXACT_MASS>
174.043

> <PUBCHEM_MOLECULAR_FORMULA>
C9H6N2O2

> <PUBCHEM_MOLECULAR_WEIGHT>
174.159

> <PUBCHEM_OPENEYE_CAN_SMILES>
CC1=C(C=C(C=C1)N=C=O)N=C=O

> <PUBCHEM_OPENEYE_ISO_SMILES>
CC1=C(C=C(C=C1)N=C=O)N=C=O

> <PUBCHEM_CACTVS_TPSA>
58.9

> <PUBCHEM_MONOISOTOPIC_WEIGHT>
174.043

> <PUBCHEM_TOTAL_CHARGE>
0

> <PUBCHEM_HEAVY_ATOM_COUNT>
13

> <PUBCHEM_ATOM_DEF_STEREO_COUNT>
0

> <PUBCHEM_ATOM_UDEF_STEREO_COUNT>
0

> <PUBCHEM_BOND_DEF_STEREO_COUNT>
0

> <PUBCHEM_BOND_UDEF_STEREO_COUNT>
0

> <PUBCHEM_ISOTOPIC_ATOM_COUNT>
0

> <PUBCHEM_COMPONENT_COUNT>
1

> <PUBCHEM_CACTVS_TAUTO_COUNT>
-1

> <PUBCHEM_COORDINATE_TYPE>
1
5
255

> <PUBCHEM_BONDANNOTATIONS>
5  6  8
5  7  8
6  8  8
7  10  8
8  9  8
9  10  8

$$$$
8434
  -OEChem-02061913072D

 12 12  0     0  0  0  0  0  0999 V2000
    3.7320    1.6550    0.0000 O   0  0  0  0  0  0  0  0  0  0  0  0
    2.8660   -2.8450    0.0000 O   0  0  0  0  0  0  0  0  0  0  0  0
    2.0000    1.6550    0.0000 O   0  0  0  0  0  0  0  0  0  0  0  0
    2.8660    0.1550    0.0000 C   0  0  0  0  0  0  0  0  0  0  0  0
    2.0000   -0.3450    0.0000 C   0  0  0  0  0  0  0  0  0  0  0  0
    3.7320   -0.3450    0.0000 C   0  0  0  0  0  0  0  0  0  0  0  0
    2.8660    1.1550    0.0000 C   0  0  0  0  0  0  0  0  0  0  0  0
    3.7320    2.6550    0.0000 C   0  0  0  0  0  0  0  0  0  0  0  0
    2.0000   -1.3450    0.0000 C   0  0  0  0  0  0  0  0  0  0  0  0
    3.7320   -1.3450    0.0000 C   0  0  0  0  0  0  0  0  0  0  0  0
    2.8660   -1.8450    0.0000 C   0  0  0  0  0  0  0  0  0  0  0  0
    4.5981    3.1550    0.0000 C   0  0  0  0  0  0  0  0  0  0  0  0
  1  7  1  0  0  0  0
  1  8  1  0  0  0  0
  2 11  1  0  0  0  0
  3  7  2  0  0  0  0
  4  5  2  0  0  0  0
  4  6  1  0  0  0  0
  4  7  1  0  0  0  0
  5  9  1  0  0  0  0
  6 10  2  0  0  0  0
  8 12  1  0  0  0  0
  9 11  2  0  0  0  0
 10 11  1  0  0  0  0
M  END
> <PUBCHEM_COMPOUND_CID>
8434

> <PUBCHEM_COMPOUND_CANONICALIZED>
1

> <PUBCHEM_CACTVS_COMPLEXITY>
148

> <PUBCHEM_CACTVS_HBOND_ACCEPTOR>
3

> <PUBCHEM_CACTVS_HBOND_DONOR>
1

> <PUBCHEM_CACTVS_ROTATABLE_BOND>
3

> <PUBCHEM_CACTVS_SUBSKEYS>
AAADccBwMAAAAAAAAAAAAAAAAAAAAAAAAAAwAAAAAAAAAAABAAAAGgAACAAADASgmAIyDoAABgCIAiDSCAACAAAkIAAIiAEGCMgIJjKCNRqCcQAkwBEIuYeI7CzOIAAAAAAAAABAAAAAAAAAAAAAAAAAAA==

> <PUBCHEM_IUPAC_OPENEYE_NAME>
ethyl 4-hydroxybenzoate

> <PUBCHEM_IUPAC_CAS_NAME>
4-hydroxybenzoic acid ethyl ester

> <PUBCHEM_IUPAC_NAME>
ethyl 4-hydroxybenzoate

> <PUBCHEM_IUPAC_SYSTEMATIC_NAME>
ethyl 4-oxidanylbenzoate

> <PUBCHEM_IUPAC_TRADITIONAL_NAME>
ethylparaben

> <PUBCHEM_IUPAC_INCHI>
InChI=1S/C9H10O3/c1-2-12-9(11)7-3-5-8(10)6-4-7/h3-6,10H,2H2,1H3

> <PUBCHEM_IUPAC_INCHIKEY>
NUVBSKCKDOMJSU-UHFFFAOYSA-N

> <PUBCHEM_XLOGP3>
2.5

> <PUBCHEM_EXACT_MASS>
166.063

> <PUBCHEM_MOLECULAR_FORMULA>
C9H10O3

> <PUBCHEM_MOLECULAR_WEIGHT>
166.176

> <PUBCHEM_OPENEYE_CAN_SMILES>
CCOC(=O)C1=CC=C(C=C1)O

> <PUBCHEM_OPENEYE_ISO_SMILES>
CCOC(=O)C1=CC=C(C=C1)O

> <PUBCHEM_CACTVS_TPSA>
46.5

> <PUBCHEM_MONOISOTOPIC_WEIGHT>
166.063

> <PUBCHEM_TOTAL_CHARGE>
0

> <PUBCHEM_HEAVY_ATOM_COUNT>
12

> <PUBCHEM_ATOM_DEF_STEREO_COUNT>
0

> <PUBCHEM_ATOM_UDEF_STEREO_COUNT>
0

> <PUBCHEM_BOND_DEF_STEREO_COUNT>
0

> <PUBCHEM_BOND_UDEF_STEREO_COUNT>
0

> <PUBCHEM_ISOTOPIC_ATOM_COUNT>
0

> <PUBCHEM_COMPONENT_COUNT>
1

> <PUBCHEM_CACTVS_TAUTO_COUNT>
-1

> <PUBCHEM_COORDINATE_TYPE>
1
5
255

> <PUBCHEM_BONDANNOTATIONS>
10  11  8
4  5  8
4  6  8
5  9  8
6  10  8
9  11  8

$$$$
6917
  -OEChem-02061913072D

  8  8  0     0  0  0  0  0  0999 V2000
    4.6261    0.2593    0.0000 O   0  0  0  0  0  0  0  0  0  0  0  0
    2.8660   -0.0194    0.0000 N   0  0  0  0  0  0  0  0  0  0  0  0
    2.3660    1.5194    0.0000 C   0  0  0  0  0  0  0  0  0  0  0  0
    2.0570    0.5684    0.0000 C   0  0  0  0  0  0  0  0  0  0  0  0
    3.3660    1.5194    0.0000 C   0  0  0  0  0  0  0  0  0  0  0  0
    3.6750    0.5684    0.0000 C   0  0  0  0  0  0  0  0  0  0  0  0
    2.8660   -1.0194    0.0000 C   0  0  0  0  0  0  0  0  0  0  0  0
    2.0000   -1.5194    0.0000 C   0  0  0  0  0  0  0  0  0  0  0  0
  1  6  2  0  0  0  0
  2  4  1  0  0  0  0
  2  6  1  0  0  0  0
  2  7  1  0  0  0  0
  3  4  1  0  0  0  0
  3  5  1  0  0  0  0
  5  6  1  0  0  0  0
  7  8  2  0  0  0  0
M  END
> <PUBCHEM_COMPOUND_CID>
6917

> <PUBCHEM_COMPOUND_CANONICALIZED>
1

> <PUBCHEM_CACTVS_COMPLEXITY>
120

> <PUBCHEM_CACTVS_HBOND_ACCEPTOR>
1

> <PUBCHEM_CACTVS_HBOND_DONOR>
0

> <PUBCHEM_CACTVS_ROTATABLE_BOND>
1

> <PUBCHEM_CACTVS_SUBSKEYS>
AAADccBiIAAAAAAAAAAAAAAAAAAAAWAAAAAAAAAAAAAAAAAAAAAAHgAAAAAACADBgAQAAAMAAACIAAEWUAAAAAAAAgAIAAEIAAAAABAAgAAEAAAABgCAAAAEAAAAAAAAAAAAAAAAAAAAAAAAAAAAAAAAAA==

> <PUBCHEM_IUPAC_OPENEYE_NAME>
1-vinylpyrrolidin-2-one

> <PUBCHEM_IUPAC_CAS_NAME>
1-ethenyl-2-pyrrolidinone

> <PUBCHEM_IUPAC_NAME>
1-ethenylpyrrolidin-2-one

> <PUBCHEM_IUPAC_SYSTEMATIC_NAME>
1-ethenylpyrrolidin-2-one

> <PUBCHEM_IUPAC_TRADITIONAL_NAME>
1-vinyl-2-pyrrolidone

> <PUBCHEM_IUPAC_INCHI>
InChI=1S/C6H9NO/c1-2-7-5-3-4-6(7)8/h2H,1,3-5H2

> <PUBCHEM_IUPAC_INCHIKEY>
WHNWPMSKXPGLAX-UHFFFAOYSA-N

> <PUBCHEM_XLOGP3>
0.4

> <PUBCHEM_EXACT_MASS>
111.068

> <PUBCHEM_MOLECULAR_FORMULA>
C6H9NO

> <PUBCHEM_MOLECULAR_WEIGHT>
111.144

> <PUBCHEM_OPENEYE_CAN_SMILES>
C=CN1CCCC1=O

> <PUBCHEM_OPENEYE_ISO_SMILES>
C=CN1CCCC1=O

> <PUBCHEM_CACTVS_TPSA>
20.3

> <PUBCHEM_MONOISOTOPIC_WEIGHT>
111.068

> <PUBCHEM_TOTAL_CHARGE>
0

> <PUBCHEM_HEAVY_ATOM_COUNT>
8

> <PUBCHEM_ATOM_DEF_STEREO_COUNT>
0

> <PUBCHEM_ATOM_UDEF_STEREO_COUNT>
0

> <PUBCHEM_BOND_DEF_STEREO_COUNT>
0

> <PUBCHEM_BOND_UDEF_STEREO_COUNT>
0

> <PUBCHEM_ISOTOPIC_ATOM_COUNT>
0

> <PUBCHEM_COMPONENT_COUNT>
1

> <PUBCHEM_CACTVS_TAUTO_COUNT>
-1

> <PUBCHEM_COORDINATE_TYPE>
1
5
255

$$$$
444679
  -OEChem-02061913092D

 29 32  0     1  0  0  0  0  0999 V2000
    2.5357   -3.6598    0.0000 O   0  0  0  0  0  0  0  0  0  0  0  0
    7.9288   -0.6074    0.0000 C   0  0  1  0  0  0  0  0  0  0  0  0
    7.9288   -1.6074    0.0000 C   0  0  2  0  0  0  0  0  0  0  0  0
    8.8750   -0.3027    0.0000 C   0  0  2  0  0  0  0  0  0  0  0  0
    6.1968   -1.6074    0.0000 C   0  0  1  0  0  0  0  0  0  0  0  0
    7.0628   -0.1074    0.0000 C   0  0  0  0  0  0  0  0  0  0  0  0
    7.0628   -2.1074    0.0000 C   0  0  0  0  0  0  0  0  0  0  0  0
    8.8750   -1.9122    0.0000 C   0  0  0  0  0  0  0  0  0  0  0  0
    5.2868   -2.1143    0.0000 C   0  0  2  0  0  0  0  0  0  0  0  0
    9.4586   -1.1074    0.0000 C   0  0  0  0  0  0  0  0  0  0  0  0
    6.1968   -0.6074    0.0000 C   0  0  0  0  0  0  0  0  0  0  0  0
    7.9288    0.3926    0.0000 C   0  0  0  0  0  0  0  0  0  0  0  0
    9.1857    0.6478    0.0000 C   0  0  2  0  0  0  0  0  0  0  0  0
    5.2787   -3.1559    0.0000 C   0  0  0  0  0  0  0  0  0  0  0  0
    4.3599   -1.5502    0.0000 C   0  0  0  0  0  0  0  0  0  0  0  0
    7.0789   -3.1489    0.0000 C   0  0  0  0  0  0  0  0  0  0  0  0
    5.2945   -1.1143    0.0000 C   0  0  0  0  0  0  0  0  0  0  0  0
    6.1808   -3.6767    0.0000 C   0  0  0  0  0  0  0  0  0  0  0  0
    4.3433   -3.7056    0.0000 C   0  0  0  0  0  0  0  0  0  0  0  0
    3.4120   -2.0781    0.0000 C   0  0  0  0  0  0  0  0  0  0  0  0
    3.4037   -3.1631    0.0000 C   0  0  2  0  0  0  0  0  0  0  0  0
    8.5179    1.3921    0.0000 C   0  0  0  0  0  0  0  0  0  0  0  0
   10.1642    0.8540    0.0000 C   0  0  0  0  0  0  0  0  0  0  0  0
   10.4749    1.8046    0.0000 C   0  0  0  0  0  0  0  0  0  0  0  0
   11.4534    2.0108    0.0000 C   0  0  1  0  0  0  0  0  0  0  0  0
   11.7640    2.9613    0.0000 C   0  0  0  0  0  0  0  0  0  0  0  0
   12.1212    1.2665    0.0000 C   0  0  0  0  0  0  0  0  0  0  0  0
   12.7425    3.1675    0.0000 C   0  0  0  0  0  0  0  0  0  0  0  0
   11.0962    3.7056    0.0000 C   0  0  0  0  0  0  0  0  0  0  0  0
 21  1  1  1  0  0  0
  2  3  1  0  0  0  0
  2  4  1  0  0  0  0
  2  6  1  0  0  0  0
  2 12  1  1  0  0  0
  3  7  1  0  0  0  0
  3  8  1  0  0  0  0
  4 10  1  0  0  0  0
  4 13  1  0  0  0  0
  5  7  1  0  0  0  0
  5  9  1  0  0  0  0
  5 11  1  0  0  0  0
  6 11  1  0  0  0  0
  7 16  2  0  0  0  0
  8 10  1  0  0  0  0
  9 14  1  0  0  0  0
  9 15  1  0  0  0  0
  9 17  1  1  0  0  0
 13 22  1  6  0  0  0
 13 23  1  0  0  0  0
 14 18  2  0  0  0  0
 14 19  1  0  0  0  0
 15 20  1  0  0  0  0
 16 18  1  0  0  0  0
 19 21  1  0  0  0  0
 20 21  1  0  0  0  0
 23 24  2  0  0  0  0
 24 25  1  0  0  0  0
 25 26  1  0  0  0  0
 25 27  1  1  0  0  0
 26 28  1  0  0  0  0
 26 29  1  0  0  0  0
M  END
> <PUBCHEM_COMPOUND_CID>
444679

> <PUBCHEM_COMPOUND_CANONICALIZED>
1

> <PUBCHEM_CACTVS_COMPLEXITY>
712

> <PUBCHEM_CACTVS_HBOND_ACCEPTOR>
1

> <PUBCHEM_CACTVS_HBOND_DONOR>
1

> <PUBCHEM_CACTVS_ROTATABLE_BOND>
4

> <PUBCHEM_CACTVS_SUBSKEYS>
AAADcfB4IAAAAAAAAAAAAAAAAAAAAYAAAAAwYIAAAAAAAGCAAAAAGgAACAAADxSggAICAAAAAgCAAiBCAAAAAAAgAAAICAAAAAgIEAIAAQAAQAAEwAAIgAOAwPAPgAAAAAAAAADAAAQAACAAAQAACAAAAA==

> <PUBCHEM_IUPAC_OPENEYE_NAME>
(3~{S},9~{S},10~{R},13~{R},14~{R},17~{R})-10,13-dimethyl-17-[(~{E},1~{R},4~{R})-1,4,5-trimethylhex-2-enyl]-2,3,4,9,11,12,14,15,16,17-decahydro-1~{H}-cyclopenta[a]phenanthren-3-ol

> <PUBCHEM_IUPAC_CAS_NAME>
(3~{S},9~{S},10~{R},13~{R},14~{R},17~{R})-17-[(~{E},2~{R},5~{R})-5,6-dimethylhept-3-en-2-yl]-10,13-dimethyl-2,3,4,9,11,12,14,15,16,17-decahydro-1~{H}-cyclopenta[a]phenanthren-3-ol

> <PUBCHEM_IUPAC_NAME>
(3~{S},9~{S},10~{R},13~{R},14~{R},17~{R})-17-[(~{E},2~{R},5~{R})-5,6-dimethylhept-3-en-2-yl]-10,13-dimethyl-2,3,4,9,11,12,14,15,16,17-decahydro-1~{H}-cyclopenta[a]phenanthren-3-ol

> <PUBCHEM_IUPAC_SYSTEMATIC_NAME>
(3~{S},9~{S},10~{R},13~{R},14~{R},17~{R})-17-[(~{E},2~{R},5~{R})-5,6-dimethylhept-3-en-2-yl]-10,13-dimethyl-2,3,4,9,11,12,14,15,16,17-decahydro-1~{H}-cyclopenta[a]phenanthren-3-ol

> <PUBCHEM_IUPAC_TRADITIONAL_NAME>
(3~{S},9~{S},10~{R},13~{R},14~{R},17~{R})-10,13-dimethyl-17-[(~{E},1~{R},4~{R})-1,4,5-trimethylhex-2-enyl]-2,3,4,9,11,12,14,15,16,17-decahydro-1~{H}-cyclopenta[a]phenanthren-3-ol

> <PUBCHEM_IUPAC_INCHI>
InChI=1S/C28H44O/c1-18(2)19(3)7-8-20(4)24-11-12-25-23-10-9-21-17-22(29)13-15-27(21,5)26(23)14-16-28(24,25)6/h7-10,18-20,22,24-26,29H,11-17H2,1-6H3/b8-7+/t19-,20+,22-,24+,25-,26-,27-,28+/m0/s1

> <PUBCHEM_IUPAC_INCHIKEY>
DNVPQKQSNYMLRS-APGDWVJJSA-N

> <PUBCHEM_XLOGP3_AA>
7.4

> <PUBCHEM_EXACT_MASS>
396.339

> <PUBCHEM_MOLECULAR_FORMULA>
C28H44O

> <PUBCHEM_MOLECULAR_WEIGHT>
396.659

> <PUBCHEM_OPENEYE_CAN_SMILES>
CC(C)C(C)C=CC(C)C1CCC2C1(CCC3C2=CC=C4C3(CCC(C4)O)C)C

> <PUBCHEM_OPENEYE_ISO_SMILES>
C[C@H](/C=C/[C@H](C)C(C)C)[C@H]1CC[C@@H]2[C@@]1(CC[C@H]3C2=CC=C4[C@@]3(CC[C@@H](C4)O)C)C

> <PUBCHEM_CACTVS_TPSA>
20.2

> <PUBCHEM_MONOISOTOPIC_WEIGHT>
396.339

> <PUBCHEM_TOTAL_CHARGE>
0

> <PUBCHEM_HEAVY_ATOM_COUNT>
29

> <PUBCHEM_ATOM_DEF_STEREO_COUNT>
8

> <PUBCHEM_ATOM_UDEF_STEREO_COUNT>
0

> <PUBCHEM_BOND_DEF_STEREO_COUNT>
1

> <PUBCHEM_BOND_UDEF_STEREO_COUNT>
0

> <PUBCHEM_ISOTOPIC_ATOM_COUNT>
0

> <PUBCHEM_COMPONENT_COUNT>
1

> <PUBCHEM_CACTVS_TAUTO_COUNT>
-1

> <PUBCHEM_COORDINATE_TYPE>
1
5
255

> <PUBCHEM_BONDANNOTATIONS>
21  1  5
13  22  6
2  12  5
25  27  5
3  30  6
4  31  6
5  32  6
9  17  5

$$$$
24096961
  -OEChem-02061914062D

 24 27  0     1  0  0  0  0  0999 V2000
    5.5320    0.3376    0.0000 O   0  0  0  0  0  0  0  0  0  0  0  0
    2.8680   -1.1382    0.0000 O   0  0  0  0  0  0  0  0  0  0  0  0
    7.7389    2.3435    0.0000 N   0  0  3  0  0  0  0  0  0  0  0  0
    6.3981   -3.1624    0.0000 N   0  0  0  0  0  0  0  0  0  0  0  0
    8.2389    1.4774    0.0000 C   0  0  3  0  0  0  0  0  0  0  0  0
    7.2641    0.3376    0.0000 C   0  0  1  0  0  0  0  0  0  0  0  0
    8.2300    0.0788    0.0000 C   0  0  0  0  0  0  0  0  0  0  0  0
    6.1726    1.5638    0.0000 C   0  0  3  0  0  0  0  0  0  0  0  0
    9.4585    2.3310    0.0000 C   0  0  0  0  0  0  0  0  0  0  0  0
    6.2598    2.5600    0.0000 C   0  0  0  0  0  0  0  0  0  0  0  0
    8.9585    3.1970    0.0000 C   0  0  0  0  0  0  0  0  0  0  0  0
    6.3981   -0.1624    0.0000 C   0  0  2  0  0  0  0  0  0  0  0  0
    5.1878    1.3902    0.0000 C   0  0  0  0  0  0  0  0  0  0  0  0
    6.3981   -1.1624    0.0000 C   0  0  0  0  0  0  0  0  0  0  0  0
    4.5450    2.1563    0.0000 C   0  0  0  0  0  0  0  0  0  0  0  0
    5.5320   -1.6624    0.0000 C   0  0  0  0  0  0  0  0  0  0  0  0
    7.2641   -1.6624    0.0000 C   0  0  0  0  0  0  0  0  0  0  0  0
    5.5320   -2.6624    0.0000 C   0  0  0  0  0  0  0  0  0  0  0  0
    4.6381   -1.1277    0.0000 C   0  0  0  0  0  0  0  0  0  0  0  0
    7.2641   -2.6624    0.0000 C   0  0  0  0  0  0  0  0  0  0  0  0
    4.6381   -3.1970    0.0000 C   0  0  0  0  0  0  0  0  0  0  0  0
    3.7320   -1.6415    0.0000 C   0  0  0  0  0  0  0  0  0  0  0  0
    3.7320   -2.6832    0.0000 C   0  0  0  0  0  0  0  0  0  0  0  0
    2.0000   -1.6349    0.0000 C   0  0  0  0  0  0  0  0  0  0  0  0
 12  1  1  6  0  0  0
  2 22  1  0  0  0  0
  2 24  1  0  0  0  0
  3  6  1  0  0  0  0
  3 10  1  0  0  0  0
  3 11  1  0  0  0  0
  4 18  2  0  0  0  0
  4 20  1  0  0  0  0
  5  7  1  0  0  0  0
  5  8  1  0  0  0  0
  5  9  1  0  0  0  0
  6  7  1  0  0  0  0
  6 12  1  0  0  0  0
  8 10  1  0  0  0  0
  8 13  1  0  0  0  0
  9 11  1  0  0  0  0
 12 14  1  0  0  0  0
 13 15  2  0  0  0  0
 14 16  2  0  0  0  0
 14 17  1  0  0  0  0
 16 18  1  0  0  0  0
 16 19  1  0  0  0  0
 17 20  2  0  0  0  0
 18 21  1  0  0  0  0
 19 22  2  0  0  0  0
 21 23  2  0  0  0  0
 22 23  1  0  0  0  0
M  END
> <PUBCHEM_COMPOUND_CID>
24096961

> <PUBCHEM_COMPOUND_CANONICALIZED>
1

> <PUBCHEM_CACTVS_COMPLEXITY>
457

> <PUBCHEM_CACTVS_HBOND_ACCEPTOR>
4

> <PUBCHEM_CACTVS_HBOND_DONOR>
1

> <PUBCHEM_CACTVS_ROTATABLE_BOND>
4

> <PUBCHEM_CACTVS_SUBSKEYS>
AAADceB7MAAAAAAAAAAAAAAAAAAAAAAAAAA8WLFiAAAAAACx8AAAHgAACAAADTzhngY+xvMIFgCgAzRnRACCiCAxIiAI2CA+bJgONuLEsZuEcChkwBHY+Aew4PwOgEABAAACAAAAgAIAAAQAAAAAAAAAAA==

> <PUBCHEM_IUPAC_OPENEYE_NAME>
(~{S})-(6-methoxy-4-quinolyl)-[(2~{S})-5-vinylquinuclidin-2-yl]methanol

> <PUBCHEM_IUPAC_CAS_NAME>
(~{S})-[(2~{S})-5-ethenyl-1-azabicyclo[2.2.2]octan-2-yl]-(6-methoxy-4-quinolinyl)methanol

> <PUBCHEM_IUPAC_NAME>
(~{S})-[(2~{S})-5-ethenyl-1-azabicyclo[2.2.2]octan-2-yl]-(6-methoxyquinolin-4-yl)methanol

> <PUBCHEM_IUPAC_SYSTEMATIC_NAME>
(~{S})-[(2~{S})-5-ethenyl-1-azabicyclo[2.2.2]octan-2-yl]-(6-methoxyquinolin-4-yl)methanol

> <PUBCHEM_IUPAC_TRADITIONAL_NAME>
(~{S})-(6-methoxy-4-quinolyl)-[(2~{S})-5-vinylquinuclidin-2-yl]methanol

> <PUBCHEM_IUPAC_INCHI>
InChI=1S/C20H24N2O2/c1-3-13-12-22-9-7-14(13)10-19(22)20(23)16-6-8-21-18-5-4-15(24-2)11-17(16)18/h3-6,8,11,13-14,19-20,23H,1,7,9-10,12H2,2H3/t13?,14?,19-,20-/m0/s1

> <PUBCHEM_IUPAC_INCHIKEY>
LOUPRKONTZGTKE-CLONCEMUSA-N

> <PUBCHEM_XLOGP3>
2.9

> <PUBCHEM_EXACT_MASS>
324.184

> <PUBCHEM_MOLECULAR_FORMULA>
C20H24N2O2

> <PUBCHEM_MOLECULAR_WEIGHT>
324.424

> <PUBCHEM_OPENEYE_CAN_SMILES>
COC1=CC2=C(C=CN=C2C=C1)C(C3CC4CCN3CC4C=C)O

> <PUBCHEM_OPENEYE_ISO_SMILES>
COC1=CC2=C(C=CN=C2C=C1)[C@@H]([C@@H]3CC4CCN3CC4C=C)O

> <PUBCHEM_CACTVS_TPSA>
45.6

> <PUBCHEM_MONOISOTOPIC_WEIGHT>
324.184

> <PUBCHEM_TOTAL_CHARGE>
0

> <PUBCHEM_HEAVY_ATOM_COUNT>
24

> <PUBCHEM_ATOM_DEF_STEREO_COUNT>
2

> <PUBCHEM_ATOM_UDEF_STEREO_COUNT>
2

> <PUBCHEM_BOND_DEF_STEREO_COUNT>
0

> <PUBCHEM_BOND_UDEF_STEREO_COUNT>
0

> <PUBCHEM_ISOTOPIC_ATOM_COUNT>
0

> <PUBCHEM_COMPONENT_COUNT>
1

> <PUBCHEM_CACTVS_TAUTO_COUNT>
-1

> <PUBCHEM_COORDINATE_TYPE>
1
5
255

> <PUBCHEM_BONDANNOTATIONS>
12  1  6
14  16  8
14  17  8
16  18  8
16  19  8
17  20  8
18  21  8
19  22  8
21  23  8
22  23  8
4  18  8
4  20  8
5  9  3
6  26  6
8  13  3

$$$$
7967
  -OEChem-02061913072D

  7  7  0     0  0  0  0  0  0999 V2000
    2.8660    1.5000    0.0000 O   0  0  0  0  0  0  0  0  0  0  0  0
    2.8660   -1.5000    0.0000 C   0  0  0  0  0  0  0  0  0  0  0  0
    3.7320   -1.0000    0.0000 C   0  0  0  0  0  0  0  0  0  0  0  0
    2.0000   -1.0000    0.0000 C   0  0  0  0  0  0  0  0  0  0  0  0
    3.7320   -0.0000    0.0000 C   0  0  0  0  0  0  0  0  0  0  0  0
    2.0000    0.0000    0.0000 C   0  0  0  0  0  0  0  0  0  0  0  0
    2.8660    0.5000    0.0000 C   0  0  0  0  0  0  0  0  0  0  0  0
  1  7  2  0  0  0  0
  2  3  1  0  0  0  0
  2  4  1  0  0  0  0
  3  5  1  0  0  0  0
  4  6  1  0  0  0  0
  5  7  1  0  0  0  0
  6  7  1  0  0  0  0
M  END
> <PUBCHEM_COMPOUND_CID>
7967

> <PUBCHEM_COMPOUND_CANONICALIZED>
1

> <PUBCHEM_CACTVS_COMPLEXITY>
68.2

> <PUBCHEM_CACTVS_HBOND_ACCEPTOR>
1

> <PUBCHEM_CACTVS_HBOND_DONOR>
0

> <PUBCHEM_CACTVS_ROTATABLE_BOND>
0

> <PUBCHEM_CACTVS_SUBSKEYS>
AAADccBgIAAAAAAAAAAAAAAAAAAAAAAAAAAwAAAAAAAAAAAAAAAAGgAAAAAACASAgAAAAAAAAAAIAIAQAAAAAAAAAAAAAAEAAAAAABIAAAAAAAAAAAAAAAEICAAAAAAAAAAAAAAAAAAAAAAAAAAAAAAAAA==

> <PUBCHEM_IUPAC_OPENEYE_NAME>
cyclohexanone

> <PUBCHEM_IUPAC_CAS_NAME>
cyclohexanone

> <PUBCHEM_IUPAC_NAME>
cyclohexanone

> <PUBCHEM_IUPAC_SYSTEMATIC_NAME>
cyclohexanone

> <PUBCHEM_IUPAC_TRADITIONAL_NAME>
cyclohexanone

> <PUBCHEM_IUPAC_INCHI>
InChI=1S/C6H10O/c7-6-4-2-1-3-5-6/h1-5H2

> <PUBCHEM_IUPAC_INCHIKEY>
JHIVVAPYMSGYDF-UHFFFAOYSA-N

> <PUBCHEM_XLOGP3>
0.8

> <PUBCHEM_EXACT_MASS>
98.073

> <PUBCHEM_MOLECULAR_FORMULA>
C6H10O

> <PUBCHEM_MOLECULAR_WEIGHT>
98.145

> <PUBCHEM_OPENEYE_CAN_SMILES>
C1CCC(=O)CC1

> <PUBCHEM_OPENEYE_ISO_SMILES>
C1CCC(=O)CC1

> <PUBCHEM_CACTVS_TPSA>
17.1

> <PUBCHEM_MONOISOTOPIC_WEIGHT>
98.073

> <PUBCHEM_TOTAL_CHARGE>
0

> <PUBCHEM_HEAVY_ATOM_COUNT>
7

> <PUBCHEM_ATOM_DEF_STEREO_COUNT>
0

> <PUBCHEM_ATOM_UDEF_STEREO_COUNT>
0

> <PUBCHEM_BOND_DEF_STEREO_COUNT>
0

> <PUBCHEM_BOND_UDEF_STEREO_COUNT>
0

> <PUBCHEM_ISOTOPIC_ATOM_COUNT>
0

> <PUBCHEM_COMPONENT_COUNT>
1

> <PUBCHEM_CACTVS_TAUTO_COUNT>
-1

> <PUBCHEM_COORDINATE_TYPE>
1
5
255

$$$$
6994089
  -OEChem-02061913392D

 25 28  0     1  0  0  0  0  0999 V2000
    4.7320    6.3660    0.0000 O   0  0  0  0  0  0  0  0  0  0  0  0
    2.0000   -6.3660    0.0000 O   0  0  0  0  0  0  0  0  0  0  0  0
    3.3660    4.0000    0.0000 O   0  0  0  0  0  0  0  0  0  0  0  0
    3.3660   -4.0000    0.0000 O   0  0  0  0  0  0  0  0  0  0  0  0
    3.3660    0.0000    0.0000 C   0  0  0  0  0  0  0  0  0  0  0  0
    4.2320    5.5000    0.0000 C   0  0  1  0  0  0  0  0  0  0  0  0
    2.5000   -5.5000    0.0000 C   0  0  1  0  0  0  0  0  0  0  0  0
    3.3660   -1.0000    0.0000 C   0  0  0  0  0  0  0  0  0  0  0  0
    3.3660    1.0000    0.0000 C   0  0  0  0  0  0  0  0  0  0  0  0
    3.0000   -6.3660    0.0000 C   0  0  0  0  0  0  0  0  0  0  0  0
    3.7320    6.3660    0.0000 C   0  0  0  0  0  0  0  0  0  0  0  0
    4.3660    0.0000    0.0000 C   0  0  0  0  0  0  0  0  0  0  0  0
    2.3660    0.0000    0.0000 C   0  0  0  0  0  0  0  0  0  0  0  0
    4.2320    4.5000    0.0000 C   0  0  0  0  0  0  0  0  0  0  0  0
    2.5000   -4.5000    0.0000 C   0  0  0  0  0  0  0  0  0  0  0  0
    2.5000    1.5000    0.0000 C   0  0  0  0  0  0  0  0  0  0  0  0
    2.5000   -1.5000    0.0000 C   0  0  0  0  0  0  0  0  0  0  0  0
    4.2320    1.5000    0.0000 C   0  0  0  0  0  0  0  0  0  0  0  0
    4.2320   -1.5000    0.0000 C   0  0  0  0  0  0  0  0  0  0  0  0
    3.3660   -3.0000    0.0000 C   0  0  0  0  0  0  0  0  0  0  0  0
    3.3660    3.0000    0.0000 C   0  0  0  0  0  0  0  0  0  0  0  0
    2.5000    2.5000    0.0000 C   0  0  0  0  0  0  0  0  0  0  0  0
    2.5000   -2.5000    0.0000 C   0  0  0  0  0  0  0  0  0  0  0  0
    4.2320    2.5000    0.0000 C   0  0  0  0  0  0  0  0  0  0  0  0
    4.2320   -2.5000    0.0000 C   0  0  0  0  0  0  0  0  0  0  0  0
  1  6  1  0  0  0  0
  1 11  1  0  0  0  0
  2  7  1  0  0  0  0
  2 10  1  0  0  0  0
  3 14  1  0  0  0  0
  3 21  1  0  0  0  0
  4 15  1  0  0  0  0
  4 20  1  0  0  0  0
  5  8  1  0  0  0  0
  5  9  1  0  0  0  0
  5 12  1  0  0  0  0
  5 13  1  0  0  0  0
  6 11  1  0  0  0  0
  6 14  1  6  0  0  0
  7 10  1  0  0  0  0
  7 15  1  6  0  0  0
  8 17  2  0  0  0  0
  8 19  1  0  0  0  0
  9 16  2  0  0  0  0
  9 18  1  0  0  0  0
 16 22  1  0  0  0  0
 17 23  1  0  0  0  0
 18 24  2  0  0  0  0
 19 25  2  0  0  0  0
 20 23  2  0  0  0  0
 20 25  1  0  0  0  0
 21 22  2  0  0  0  0
 21 24  1  0  0  0  0
M  END
> <PUBCHEM_COMPOUND_CID>
6994089

> <PUBCHEM_COMPOUND_CANONICALIZED>
1

> <PUBCHEM_CACTVS_COMPLEXITY>
384

> <PUBCHEM_CACTVS_HBOND_ACCEPTOR>
4

> <PUBCHEM_CACTVS_HBOND_DONOR>
0

> <PUBCHEM_CACTVS_ROTATABLE_BOND>
8

> <PUBCHEM_CACTVS_SUBSKEYS>
AAADceB4OAAAAAAAAAAAAAAAEiQAAAAAAAAwYAAAAAAAAAABQAAAGgAAAAAADhSgmAIyBoAABACAAiBCAAACCAAgIAAIiAAGCIgNJiKEMRqCOCClwBEKqAeAwPAPoAAAAAAAAABAAAAAAAAAAAAAAAAAAA==

> <PUBCHEM_IUPAC_OPENEYE_NAME>
(2~{S})-2-[[4-[1-methyl-1-[4-[[(2~{S})-oxiran-2-yl]methoxy]phenyl]ethyl]phenoxy]methyl]oxirane

> <PUBCHEM_IUPAC_CAS_NAME>
(2~{S})-2-[[4-[2-[4-[[(2~{S})-2-oxiranyl]methoxy]phenyl]propan-2-yl]phenoxy]methyl]oxirane

> <PUBCHEM_IUPAC_NAME>
(2~{S})-2-[[4-[2-[4-[[(2~{S})-oxiran-2-yl]methoxy]phenyl]propan-2-yl]phenoxy]methyl]oxirane

> <PUBCHEM_IUPAC_SYSTEMATIC_NAME>
(2~{S})-2-[[4-[2-[4-[[(2~{S})-oxiran-2-yl]methoxy]phenyl]propan-2-yl]phenoxy]methyl]oxirane

> <PUBCHEM_IUPAC_TRADITIONAL_NAME>
(2~{S})-2-[[4-[1-methyl-1-[4-[[(2~{S})-oxiran-2-yl]methoxy]phenyl]ethyl]phenoxy]methyl]oxirane

> <PUBCHEM_IUPAC_INCHI>
InChI=1S/C21H24O4/c1-21(2,15-3-7-17(8-4-15)22-11-19-13-24-19)16-5-9-18(10-6-16)23-12-20-14-25-20/h3-10,19-20H,11-14H2,1-2H3/t19-,20-/m1/s1

> <PUBCHEM_IUPAC_INCHIKEY>
LCFVJGUPQDGYKZ-WOJBJXKFSA-N

> <PUBCHEM_XLOGP3_AA>
4

> <PUBCHEM_EXACT_MASS>
340.167

> <PUBCHEM_MOLECULAR_FORMULA>
C21H24O4

> <PUBCHEM_MOLECULAR_WEIGHT>
340.419

> <PUBCHEM_OPENEYE_CAN_SMILES>
CC(C)(C1=CC=C(C=C1)OCC2CO2)C3=CC=C(C=C3)OCC4CO4

> <PUBCHEM_OPENEYE_ISO_SMILES>
CC(C)(C1=CC=C(C=C1)OC[C@@H]2CO2)C3=CC=C(C=C3)OC[C@@H]4CO4

> <PUBCHEM_CACTVS_TPSA>
43.5

> <PUBCHEM_MONOISOTOPIC_WEIGHT>
340.167

> <PUBCHEM_TOTAL_CHARGE>
0

> <PUBCHEM_HEAVY_ATOM_COUNT>
25

> <PUBCHEM_ATOM_DEF_STEREO_COUNT>
2

> <PUBCHEM_ATOM_UDEF_STEREO_COUNT>
0

> <PUBCHEM_BOND_DEF_STEREO_COUNT>
0

> <PUBCHEM_BOND_UDEF_STEREO_COUNT>
0

> <PUBCHEM_ISOTOPIC_ATOM_COUNT>
0

> <PUBCHEM_COMPONENT_COUNT>
1

> <PUBCHEM_CACTVS_TAUTO_COUNT>
-1

> <PUBCHEM_COORDINATE_TYPE>
1
5
255

> <PUBCHEM_BONDANNOTATIONS>
16  22  8
17  23  8
18  24  8
19  25  8
20  23  8
20  25  8
21  22  8
21  24  8
6  14  6
7  15  6
8  17  8
8  19  8
9  16  8
9  18  8

$$$$
31211
  -OEChem-02061913062D

 14 14  0     0  0  0  0  0  0999 V2000
    4.2690    2.5000    0.0000 O   0  0  0  0  0  0  0  0  0  0  0  0
    2.5369    1.5000    0.0000 O   0  0  0  0  0  0  0  0  0  0  0  0
    7.7331   -1.5000    0.0000 O   0  0  0  0  0  0  0  0  0  0  0  0
    6.0010   -0.5000    0.0000 C   0  0  0  0  0  0  0  0  0  0  0  0
    5.1350    0.0000    0.0000 C   0  0  0  0  0  0  0  0  0  0  0  0
    6.0010   -1.5000    0.0000 C   0  0  0  0  0  0  0  0  0  0  0  0
    5.1350    1.0000    0.0000 C   0  0  0  0  0  0  0  0  0  0  0  0
    4.2690   -0.5000    0.0000 C   0  0  0  0  0  0  0  0  0  0  0  0
    4.2690    1.5000    0.0000 C   0  0  0  0  0  0  0  0  0  0  0  0
    6.8671   -2.0000    0.0000 C   0  0  0  0  0  0  0  0  0  0  0  0
    3.4030    0.0000    0.0000 C   0  0  0  0  0  0  0  0  0  0  0  0
    3.4030    1.0000    0.0000 C   0  0  0  0  0  0  0  0  0  0  0  0
    6.8671   -3.0000    0.0000 C   0  0  0  0  0  0  0  0  0  0  0  0
    5.1350    3.0000    0.0000 C   0  0  0  0  0  0  0  0  0  0  0  0
  1  9  1  0  0  0  0
  1 14  1  0  0  0  0
  2 12  1  0  0  0  0
  3 10  2  0  0  0  0
  4  5  1  0  0  0  0
  4  6  1  0  0  0  0
  5  7  2  0  0  0  0
  5  8  1  0  0  0  0
  6 10  1  0  0  0  0
  7  9  1  0  0  0  0
  8 11  2  0  0  0  0
  9 12  2  0  0  0  0
 10 13  1  0  0  0  0
 11 12  1  0  0  0  0
M  END
> <PUBCHEM_COMPOUND_CID>
31211

> <PUBCHEM_COMPOUND_CANONICALIZED>
1

> <PUBCHEM_CACTVS_COMPLEXITY>
191

> <PUBCHEM_CACTVS_HBOND_ACCEPTOR>
3

> <PUBCHEM_CACTVS_HBOND_DONOR>
1

> <PUBCHEM_CACTVS_ROTATABLE_BOND>
4

> <PUBCHEM_CACTVS_SUBSKEYS>
AAADccBwMAAAAAAAAAAAAAAAAAAAAAAAAAAwAAAAAAAAAAABAAAAGgAACAAADASAmAIyBoAABgCIAqBSAAACCAAgIAAIiAEGiIgNJjKGMRqAcCMkwBELuAeIyLCOIAABAAAAQABAAAIAAACAAAAAAAAAAA==

> <PUBCHEM_IUPAC_OPENEYE_NAME>
4-(4-hydroxy-3-methoxy-phenyl)butan-2-one

> <PUBCHEM_IUPAC_CAS_NAME>
4-(4-hydroxy-3-methoxyphenyl)-2-butanone

> <PUBCHEM_IUPAC_NAME>
4-(4-hydroxy-3-methoxyphenyl)butan-2-one

> <PUBCHEM_IUPAC_SYSTEMATIC_NAME>
4-(3-methoxy-4-oxidanyl-phenyl)butan-2-one

> <PUBCHEM_IUPAC_TRADITIONAL_NAME>
4-(4-hydroxy-3-methoxy-phenyl)butan-2-one

> <PUBCHEM_IUPAC_INCHI>
InChI=1S/C11H14O3/c1-8(12)3-4-9-5-6-10(13)11(7-9)14-2/h5-7,13H,3-4H2,1-2H3

> <PUBCHEM_IUPAC_INCHIKEY>
OJYLAHXKWMRDGS-UHFFFAOYSA-N

> <PUBCHEM_XLOGP3>
0.8

> <PUBCHEM_EXACT_MASS>
194.094

> <PUBCHEM_MOLECULAR_FORMULA>
C11H14O3

> <PUBCHEM_MOLECULAR_WEIGHT>
194.23

> <PUBCHEM_OPENEYE_CAN_SMILES>
CC(=O)CCC1=CC(=C(C=C1)O)OC

> <PUBCHEM_OPENEYE_ISO_SMILES>
CC(=O)CCC1=CC(=C(C=C1)O)OC

> <PUBCHEM_CACTVS_TPSA>
46.5

> <PUBCHEM_MONOISOTOPIC_WEIGHT>
194.094

> <PUBCHEM_TOTAL_CHARGE>
0

> <PUBCHEM_HEAVY_ATOM_COUNT>
14

> <PUBCHEM_ATOM_DEF_STEREO_COUNT>
0

> <PUBCHEM_ATOM_UDEF_STEREO_COUNT>
0

> <PUBCHEM_BOND_DEF_STEREO_COUNT>
0

> <PUBCHEM_BOND_UDEF_STEREO_COUNT>
0

> <PUBCHEM_ISOTOPIC_ATOM_COUNT>
0

> <PUBCHEM_COMPONENT_COUNT>
1

> <PUBCHEM_CACTVS_TAUTO_COUNT>
-1

> <PUBCHEM_COORDINATE_TYPE>
1
5
255

> <PUBCHEM_BONDANNOTATIONS>
11  12  8
5  7  8
5  8  8
7  9  8
8  11  8
9  12  8

$$$$
9250
  -OEChem-02061913072D

  4  4  0     0  0  0  0  0  0999 V2000
    3.0000    0.5000    0.0000 C   0  0  0  0  0  0  0  0  0  0  0  0
    3.0000   -0.5000    0.0000 C   0  0  0  0  0  0  0  0  0  0  0  0
    2.0000   -0.5000    0.0000 C   0  0  0  0  0  0  0  0  0  0  0  0
    2.0000    0.5000    0.0000 C   0  0  0  0  0  0  0  0  0  0  0  0
  1  2  1  0  0  0  0
  1  4  1  0  0  0  0
  2  3  1  0  0  0  0
  3  4  1  0  0  0  0
M  END
> <PUBCHEM_COMPOUND_CID>
9250

> <PUBCHEM_COMPOUND_CANONICALIZED>
1

> <PUBCHEM_CACTVS_COMPLEXITY>
8

> <PUBCHEM_CACTVS_HBOND_ACCEPTOR>
0

> <PUBCHEM_CACTVS_HBOND_DONOR>
0

> <PUBCHEM_CACTVS_ROTATABLE_BOND>
0

> <PUBCHEM_CACTVS_SUBSKEYS>
AAADccBgAAAAAAAAAAAAAAAAAABgAAAAAAAAAAAAAAAAAAAAAAAAGAAAAAAACACAAAAAAAAAAAAAAAAAAAAAAAAAAAAAAAAAAAAAAAAAAAAAAAAAAAAAAAAAAAAAAAAAAAAAAAAAAAAAAAAAAAAAAAAAAA==

> <PUBCHEM_IUPAC_OPENEYE_NAME>
cyclobutane

> <PUBCHEM_IUPAC_CAS_NAME>
cyclobutane

> <PUBCHEM_IUPAC_NAME>
cyclobutane

> <PUBCHEM_IUPAC_SYSTEMATIC_NAME>
cyclobutane

> <PUBCHEM_IUPAC_TRADITIONAL_NAME>
cyclobutane

> <PUBCHEM_IUPAC_INCHI>
InChI=1S/C4H8/c1-2-4-3-1/h1-4H2

> <PUBCHEM_IUPAC_INCHIKEY>
PMPVIKIVABFJJI-UHFFFAOYSA-N

> <PUBCHEM_XLOGP3>
2.5

> <PUBCHEM_EXACT_MASS>
56.063

> <PUBCHEM_MOLECULAR_FORMULA>
C4H8

> <PUBCHEM_MOLECULAR_WEIGHT>
56.108

> <PUBCHEM_OPENEYE_CAN_SMILES>
C1CCC1

> <PUBCHEM_OPENEYE_ISO_SMILES>
C1CCC1

> <PUBCHEM_CACTVS_TPSA>
0

> <PUBCHEM_MONOISOTOPIC_WEIGHT>
56.063

> <PUBCHEM_TOTAL_CHARGE>
0

> <PUBCHEM_HEAVY_ATOM_COUNT>
4

> <PUBCHEM_ATOM_DEF_STEREO_COUNT>
0

> <PUBCHEM_ATOM_UDEF_STEREO_COUNT>
0

> <PUBCHEM_BOND_DEF_STEREO_COUNT>
0

> <PUBCHEM_BOND_UDEF_STEREO_COUNT>
0

> <PUBCHEM_ISOTOPIC_ATOM_COUNT>
0

> <PUBCHEM_COMPONENT_COUNT>
1

> <PUBCHEM_CACTVS_TAUTO_COUNT>
-1

> <PUBCHEM_COORDINATE_TYPE>
1
5
255

$$$$
1049
  -OEChem-02061913062D

  6  6  0     0  0  0  0  0  0999 V2000
    2.8660   -1.0000    0.0000 N   0  0  0  0  0  0  0  0  0  0  0  0
    2.8660    1.0000    0.0000 C   0  0  0  0  0  0  0  0  0  0  0  0
    2.0000    0.5000    0.0000 C   0  0  0  0  0  0  0  0  0  0  0  0
    3.7320    0.5000    0.0000 C   0  0  0  0  0  0  0  0  0  0  0  0
    2.0000   -0.5000    0.0000 C   0  0  0  0  0  0  0  0  0  0  0  0
    3.7320   -0.5000    0.0000 C   0  0  0  0  0  0  0  0  0  0  0  0
  1  5  2  0  0  0  0
  1  6  1  0  0  0  0
  2  3  2  0  0  0  0
  2  4  1  0  0  0  0
  3  5  1  0  0  0  0
  4  6  2  0  0  0  0
M  END
> <PUBCHEM_COMPOUND_CID>
1049

> <PUBCHEM_COMPOUND_CANONICALIZED>
1

> <PUBCHEM_CACTVS_COMPLEXITY>
30.9

> <PUBCHEM_CACTVS_HBOND_ACCEPTOR>
1

> <PUBCHEM_CACTVS_HBOND_DONOR>
0

> <PUBCHEM_CACTVS_ROTATABLE_BOND>
0

> <PUBCHEM_CACTVS_SUBSKEYS>
AAADcYBiAAAAAAAAAAAAAAAAAAAAAAAAAAAsAAAAAAAAAAABgAAAHAAAAAAACADBEgQ8gJIIEACgADBnRACCgCAxAiAI2CA4ZJgIIOLAkZGEIAhggADIyAYQAAAAAAAAAAAAAAAAAAAAAAAAAAAAAAAAAA==

> <PUBCHEM_IUPAC_OPENEYE_NAME>
pyridine

> <PUBCHEM_IUPAC_CAS_NAME>
pyridine

> <PUBCHEM_IUPAC_NAME>
pyridine

> <PUBCHEM_IUPAC_SYSTEMATIC_NAME>
pyridine

> <PUBCHEM_IUPAC_TRADITIONAL_NAME>
pyridine

> <PUBCHEM_IUPAC_INCHI>
InChI=1S/C5H5N/c1-2-4-6-5-3-1/h1-5H

> <PUBCHEM_IUPAC_INCHIKEY>
JUJWROOIHBZHMG-UHFFFAOYSA-N

> <PUBCHEM_XLOGP3>
0.7

> <PUBCHEM_EXACT_MASS>
79.042

> <PUBCHEM_MOLECULAR_FORMULA>
C5H5N

> <PUBCHEM_MOLECULAR_WEIGHT>
79.102

> <PUBCHEM_OPENEYE_CAN_SMILES>
C1=CC=NC=C1

> <PUBCHEM_OPENEYE_ISO_SMILES>
C1=CC=NC=C1

> <PUBCHEM_CACTVS_TPSA>
12.9

> <PUBCHEM_MONOISOTOPIC_WEIGHT>
79.042

> <PUBCHEM_TOTAL_CHARGE>
0

> <PUBCHEM_HEAVY_ATOM_COUNT>
6

> <PUBCHEM_ATOM_DEF_STEREO_COUNT>
0

> <PUBCHEM_ATOM_UDEF_STEREO_COUNT>
0

> <PUBCHEM_BOND_DEF_STEREO_COUNT>
0

> <PUBCHEM_BOND_UDEF_STEREO_COUNT>
0

> <PUBCHEM_ISOTOPIC_ATOM_COUNT>
0

> <PUBCHEM_COMPONENT_COUNT>
1

> <PUBCHEM_CACTVS_TAUTO_COUNT>
-1

> <PUBCHEM_COORDINATE_TYPE>
1
5
255

> <PUBCHEM_BONDANNOTATIONS>
1  5  8
1  6  8
2  3  8
2  4  8
3  5  8
4  6  8

$$$$
6824
  -OEChem-02061913072D

 19 21  0     0  0  0  0  0  0999 V2000
    4.2690    0.2327    0.0000 N   0  0  0  0  0  0  0  0  0  0  0  0
    2.5369    1.2327    0.0000 N   0  0  0  0  0  0  0  0  0  0  0  0
    3.4030   -0.2673    0.0000 N   0  0  0  0  0  0  0  0  0  0  0  0
    5.1350    1.7327    0.0000 C   0  0  0  0  0  0  0  0  0  0  0  0
    5.1350    2.7327    0.0000 C   0  0  0  0  0  0  0  0  0  0  0  0
    4.2690    1.2327    0.0000 C   0  0  0  0  0  0  0  0  0  0  0  0
    3.4030    1.7327    0.0000 C   0  0  0  0  0  0  0  0  0  0  0  0
    4.2690    3.2327    0.0000 C   0  0  0  0  0  0  0  0  0  0  0  0
    6.0290    1.1980    0.0000 C   0  0  0  0  0  0  0  0  0  0  0  0
    6.0290    3.2673    0.0000 C   0  0  0  0  0  0  0  0  0  0  0  0
    3.4030    2.7327    0.0000 C   0  0  0  0  0  0  0  0  0  0  0  0
    6.9350    1.7118    0.0000 C   0  0  0  0  0  0  0  0  0  0  0  0
    6.9350    2.7535    0.0000 C   0  0  0  0  0  0  0  0  0  0  0  0
    3.4030   -1.2673    0.0000 C   0  0  0  0  0  0  0  0  0  0  0  0
    2.5369   -1.7673    0.0000 C   0  0  0  0  0  0  0  0  0  0  0  0
    4.2690   -1.7673    0.0000 C   0  0  0  0  0  0  0  0  0  0  0  0
    2.5369   -2.7673    0.0000 C   0  0  0  0  0  0  0  0  0  0  0  0
    4.2690   -2.7673    0.0000 C   0  0  0  0  0  0  0  0  0  0  0  0
    3.4030   -3.2673    0.0000 C   0  0  0  0  0  0  0  0  0  0  0  0
  1  3  2  0  0  0  0
  1  6  1  0  0  0  0
  2  7  1  0  0  0  0
  3 14  1  0  0  0  0
  4  5  1  0  0  0  0
  4  6  1  0  0  0  0
  4  9  2  0  0  0  0
  5  8  1  0  0  0  0
  5 10  2  0  0  0  0
  6  7  2  0  0  0  0
  7 11  1  0  0  0  0
  8 11  2  0  0  0  0
  9 12  1  0  0  0  0
 10 13  1  0  0  0  0
 12 13  2  0  0  0  0
 14 15  2  0  0  0  0
 14 16  1  0  0  0  0
 15 17  1  0  0  0  0
 16 18  2  0  0  0  0
 17 19  2  0  0  0  0
 18 19  1  0  0  0  0
M  END
> <PUBCHEM_COMPOUND_CID>
6824

> <PUBCHEM_COMPOUND_CANONICALIZED>
1

> <PUBCHEM_CACTVS_COMPLEXITY>
309

> <PUBCHEM_CACTVS_HBOND_ACCEPTOR>
3

> <PUBCHEM_CACTVS_HBOND_DONOR>
1

> <PUBCHEM_CACTVS_ROTATABLE_BOND>
2

> <PUBCHEM_CACTVS_SUBSKEYS>
AAADccB7AAAAAAAAAAAAAAAAAAAAAAAAAAAwYMAAAAAAAADBVAAAHAAYAAAADAiBGAAwwMBAAACCAiRCQACCAAAgAgAIiAAAdIgIYCKAkZGAIABgkAAIyAcQgIAOiAAAQAASACAQAACAACQAQAAAAAAAAA==

> <PUBCHEM_IUPAC_OPENEYE_NAME>
1-phenylazonaphthalen-2-amine

> <PUBCHEM_IUPAC_CAS_NAME>
1-phenyldiazenyl-2-naphthalenamine

> <PUBCHEM_IUPAC_NAME>
1-phenyldiazenylnaphthalen-2-amine

> <PUBCHEM_IUPAC_SYSTEMATIC_NAME>
1-phenyldiazenylnaphthalen-2-amine

> <PUBCHEM_IUPAC_TRADITIONAL_NAME>
(1-phenylazo-2-naphthyl)amine

> <PUBCHEM_IUPAC_INCHI>
InChI=1S/C16H13N3/c17-15-11-10-12-6-4-5-9-14(12)16(15)19-18-13-7-2-1-3-8-13/h1-11H,17H2

> <PUBCHEM_IUPAC_INCHIKEY>
KLCDQSGLLRINHY-UHFFFAOYSA-N

> <PUBCHEM_XLOGP3_AA>
4.3

> <PUBCHEM_EXACT_MASS>
247.111

> <PUBCHEM_MOLECULAR_FORMULA>
C16H13N3

> <PUBCHEM_MOLECULAR_WEIGHT>
247.301

> <PUBCHEM_OPENEYE_CAN_SMILES>
C1=CC=C(C=C1)N=NC2=C(C=CC3=CC=CC=C32)N

> <PUBCHEM_OPENEYE_ISO_SMILES>
C1=CC=C(C=C1)N=NC2=C(C=CC3=CC=CC=C32)N

> <PUBCHEM_CACTVS_TPSA>
50.7

> <PUBCHEM_MONOISOTOPIC_WEIGHT>
247.111

> <PUBCHEM_TOTAL_CHARGE>
0

> <PUBCHEM_HEAVY_ATOM_COUNT>
19

> <PUBCHEM_ATOM_DEF_STEREO_COUNT>
0

> <PUBCHEM_ATOM_UDEF_STEREO_COUNT>
0

> <PUBCHEM_BOND_DEF_STEREO_COUNT>
0

> <PUBCHEM_BOND_UDEF_STEREO_COUNT>
0

> <PUBCHEM_ISOTOPIC_ATOM_COUNT>
0

> <PUBCHEM_COMPONENT_COUNT>
1

> <PUBCHEM_CACTVS_TAUTO_COUNT>
-1

> <PUBCHEM_COORDINATE_TYPE>
1
5
255

> <PUBCHEM_BONDANNOTATIONS>
10  13  8
12  13  8
14  15  8
14  16  8
15  17  8
16  18  8
17  19  8
18  19  8
4  5  8
4  6  8
4  9  8
5  10  8
5  8  8
6  7  8
7  11  8
8  11  8
9  12  8

$$$$
1548943
  -OEChem-02061913162D

 22 22  0     0  0  0  0  0  0999 V2000
    7.7331    1.0000    0.0000 O   0  0  0  0  0  0  0  0  0  0  0  0
    4.2690    5.0000    0.0000 O   0  0  0  0  0  0  0  0  0  0  0  0
    2.5369    4.0000    0.0000 O   0  0  0  0  0  0  0  0  0  0  0  0
    6.0010    1.0000    0.0000 N   0  0  0  0  0  0  0  0  0  0  0  0
    7.7331   -2.0000    0.0000 C   0  0  0  0  0  0  0  0  0  0  0  0
    7.7331   -1.0000    0.0000 C   0  0  0  0  0  0  0  0  0  0  0  0
    8.5991   -2.5000    0.0000 C   0  0  0  0  0  0  0  0  0  0  0  0
    6.8671   -0.5000    0.0000 C   0  0  0  0  0  0  0  0  0  0  0  0
    9.4651   -5.0000    0.0000 C   0  0  0  0  0  0  0  0  0  0  0  0
    8.5991   -3.5000    0.0000 C   0  0  0  0  0  0  0  0  0  0  0  0
    6.8671    0.5000    0.0000 C   0  0  0  0  0  0  0  0  0  0  0  0
    9.4651   -4.0000    0.0000 C   0  0  0  0  0  0  0  0  0  0  0  0
    6.0010    2.0000    0.0000 C   0  0  0  0  0  0  0  0  0  0  0  0
    5.1350    2.5000    0.0000 C   0  0  0  0  0  0  0  0  0  0  0  0
   10.3312   -5.5000    0.0000 C   0  0  0  0  0  0  0  0  0  0  0  0
    8.5991   -5.5000    0.0000 C   0  0  0  0  0  0  0  0  0  0  0  0
    5.1350    3.5000    0.0000 C   0  0  0  0  0  0  0  0  0  0  0  0
    4.2690    2.0000    0.0000 C   0  0  0  0  0  0  0  0  0  0  0  0
    4.2690    4.0000    0.0000 C   0  0  0  0  0  0  0  0  0  0  0  0
    3.4030    2.5000    0.0000 C   0  0  0  0  0  0  0  0  0  0  0  0
    3.4030    3.5000    0.0000 C   0  0  0  0  0  0  0  0  0  0  0  0
    5.1350    5.5000    0.0000 C   0  0  0  0  0  0  0  0  0  0  0  0
  1 11  2  0  0  0  0
  2 19  1  0  0  0  0
  2 22  1  0  0  0  0
  3 21  1  0  0  0  0
  4 11  1  0  0  0  0
  4 13  1  0  0  0  0
  5  6  1  0  0  0  0
  5  7  1  0  0  0  0
  6  8  1  0  0  0  0
  7 10  1  0  0  0  0
  8 11  1  0  0  0  0
  9 12  1  0  0  0  0
  9 15  1  0  0  0  0
  9 16  1  0  0  0  0
 10 12  2  0  0  0  0
 13 14  1  0  0  0  0
 14 17  2  0  0  0  0
 14 18  1  0  0  0  0
 17 19  1  0  0  0  0
 18 20  2  0  0  0  0
 19 21  2  0  0  0  0
 20 21  1  0  0  0  0
M  END
> <PUBCHEM_COMPOUND_CID>
1548943

> <PUBCHEM_COMPOUND_CANONICALIZED>
1

> <PUBCHEM_CACTVS_COMPLEXITY>
341

> <PUBCHEM_CACTVS_HBOND_ACCEPTOR>
3

> <PUBCHEM_CACTVS_HBOND_DONOR>
2

> <PUBCHEM_CACTVS_ROTATABLE_BOND>
9

> <PUBCHEM_CACTVS_SUBSKEYS>
AAADceB6MAAAAAAAAAAAAAAAAAAAAAAAAAAwAAAAAAAAAAABAAAAHgAQCAAADQTBmAYyBoLABgCIAiFSEACCCAAgIAAIiIEOjIgNJjKGsRuEcCtk1hGLuAe42BIOIAABAAAAQABAAAIAAACAAAAAAAAAAA==

> <PUBCHEM_IUPAC_OPENEYE_NAME>
(~{E})-~{N}-[(4-hydroxy-3-methoxy-phenyl)methyl]-8-methyl-non-6-enamide

> <PUBCHEM_IUPAC_CAS_NAME>
(~{E})-~{N}-[(4-hydroxy-3-methoxyphenyl)methyl]-8-methyl-6-nonenamide

> <PUBCHEM_IUPAC_NAME>
(~{E})-~{N}-[(4-hydroxy-3-methoxyphenyl)methyl]-8-methylnon-6-enamide

> <PUBCHEM_IUPAC_SYSTEMATIC_NAME>
(~{E})-~{N}-[(3-methoxy-4-oxidanyl-phenyl)methyl]-8-methyl-non-6-enamide

> <PUBCHEM_IUPAC_TRADITIONAL_NAME>
(~{E})-8-methyl-~{N}-vanillyl-non-6-enamide

> <PUBCHEM_IUPAC_INCHI>
InChI=1S/C18H27NO3/c1-14(2)8-6-4-5-7-9-18(21)19-13-15-10-11-16(20)17(12-15)22-3/h6,8,10-12,14,20H,4-5,7,9,13H2,1-3H3,(H,19,21)/b8-6+

> <PUBCHEM_IUPAC_INCHIKEY>
YKPUWZUDDOIDPM-SOFGYWHQSA-N

> <PUBCHEM_XLOGP3_AA>
3.6

> <PUBCHEM_EXACT_MASS>
305.199

> <PUBCHEM_MOLECULAR_FORMULA>
C18H27NO3

> <PUBCHEM_MOLECULAR_WEIGHT>
305.418

> <PUBCHEM_OPENEYE_CAN_SMILES>
CC(C)C=CCCCCC(=O)NCC1=CC(=C(C=C1)O)OC

> <PUBCHEM_OPENEYE_ISO_SMILES>
CC(C)/C=C/CCCCC(=O)NCC1=CC(=C(C=C1)O)OC

> <PUBCHEM_CACTVS_TPSA>
58.6

> <PUBCHEM_MONOISOTOPIC_WEIGHT>
305.199

> <PUBCHEM_TOTAL_CHARGE>
0

> <PUBCHEM_HEAVY_ATOM_COUNT>
22

> <PUBCHEM_ATOM_DEF_STEREO_COUNT>
0

> <PUBCHEM_ATOM_UDEF_STEREO_COUNT>
0

> <PUBCHEM_BOND_DEF_STEREO_COUNT>
1

> <PUBCHEM_BOND_UDEF_STEREO_COUNT>
0

> <PUBCHEM_ISOTOPIC_ATOM_COUNT>
0

> <PUBCHEM_COMPONENT_COUNT>
1

> <PUBCHEM_CACTVS_TAUTO_COUNT>
-1

> <PUBCHEM_COORDINATE_TYPE>
1
5
255

> <PUBCHEM_BONDANNOTATIONS>
14  17  8
14  18  8
17  19  8
18  20  8
19  21  8
20  21  8

$$$$
7966
  -OEChem-02061913072D

  7  7  0     0  0  0  0  0  0999 V2000
    2.8660    1.3450    0.0000 O   0  0  0  0  0  0  0  0  0  0  0  0
    2.8660    0.3450    0.0000 C   0  0  0  0  0  0  0  0  0  0  0  0
    2.0000   -0.1550    0.0000 C   0  0  0  0  0  0  0  0  0  0  0  0
    3.7320   -0.1550    0.0000 C   0  0  0  0  0  0  0  0  0  0  0  0
    2.0000   -1.1550    0.0000 C   0  0  0  0  0  0  0  0  0  0  0  0
    3.7320   -1.1550    0.0000 C   0  0  0  0  0  0  0  0  0  0  0  0
    2.8660   -1.6550    0.0000 C   0  0  0  0  0  0  0  0  0  0  0  0
  1  2  1  0  0  0  0
  2  3  1  0  0  0  0
  2  4  1  0  0  0  0
  3  5  1  0  0  0  0
  4  6  1  0  0  0  0
  5  7  1  0  0  0  0
  6  7  1  0  0  0  0
M  END
> <PUBCHEM_COMPOUND_CID>
7966

> <PUBCHEM_COMPOUND_CANONICALIZED>
1

> <PUBCHEM_CACTVS_COMPLEXITY>
46.1

> <PUBCHEM_CACTVS_HBOND_ACCEPTOR>
1

> <PUBCHEM_CACTVS_HBOND_DONOR>
1

> <PUBCHEM_CACTVS_ROTATABLE_BOND>
0

> <PUBCHEM_CACTVS_SUBSKEYS>
AAADccBgIAAAAAAAAAAAAAAAAAAAAAAAAAAwAAAAAAAAAAAAAAAAGgAACAAACBSggAIAAAAAAgAAAAAAAAAAAAAAAAAAAAAAAAAAEAIAAAAAQAAEAAAAAAGAQAAAAAAAAAAAAAAAAAAAAAAAAAAAAAAAAA==

> <PUBCHEM_IUPAC_OPENEYE_NAME>
cyclohexanol

> <PUBCHEM_IUPAC_CAS_NAME>
cyclohexanol

> <PUBCHEM_IUPAC_NAME>
cyclohexanol

> <PUBCHEM_IUPAC_SYSTEMATIC_NAME>
cyclohexanol

> <PUBCHEM_IUPAC_TRADITIONAL_NAME>
cyclohexanol

> <PUBCHEM_IUPAC_INCHI>
InChI=1S/C6H12O/c7-6-4-2-1-3-5-6/h6-7H,1-5H2

> <PUBCHEM_IUPAC_INCHIKEY>
HPXRVTGHNJAIIH-UHFFFAOYSA-N

> <PUBCHEM_XLOGP3>
1.2

> <PUBCHEM_EXACT_MASS>
100.089

> <PUBCHEM_MOLECULAR_FORMULA>
C6H12O

> <PUBCHEM_MOLECULAR_WEIGHT>
100.161

> <PUBCHEM_OPENEYE_CAN_SMILES>
C1CCC(CC1)O

> <PUBCHEM_OPENEYE_ISO_SMILES>
C1CCC(CC1)O

> <PUBCHEM_CACTVS_TPSA>
20.2

> <PUBCHEM_MONOISOTOPIC_WEIGHT>
100.089

> <PUBCHEM_TOTAL_CHARGE>
0

> <PUBCHEM_HEAVY_ATOM_COUNT>
7

> <PUBCHEM_ATOM_DEF_STEREO_COUNT>
0

> <PUBCHEM_ATOM_UDEF_STEREO_COUNT>
0

> <PUBCHEM_BOND_DEF_STEREO_COUNT>
0

> <PUBCHEM_BOND_UDEF_STEREO_COUNT>
0

> <PUBCHEM_ISOTOPIC_ATOM_COUNT>
0

> <PUBCHEM_COMPONENT_COUNT>
1

> <PUBCHEM_CACTVS_TAUTO_COUNT>
-1

> <PUBCHEM_COORDINATE_TYPE>
1
5
255

$$$$
86280331
  -OEChem-02061914482D

 29 31  0     1  0  0  0  0  0999 V2000
    5.4641   -4.8465    0.0000 O   0  0  0  0  0  0  0  0  0  0  0  0
    5.4641    1.1535    0.0000 C   0  0  2  0  0  0  0  0  0  0  0  0
    6.4103    1.4582    0.0000 C   0  0  2  0  0  0  0  0  0  0  0  0
    5.4641    0.1535    0.0000 C   0  0  3  0  0  0  0  0  0  0  0  0
    6.9939    0.6535    0.0000 C   0  0  0  0  0  0  0  0  0  0  0  0
    6.4103   -0.1512    0.0000 C   0  0  0  0  0  0  0  0  0  0  0  0
    4.5981    1.6535    0.0000 C   0  0  0  0  0  0  0  0  0  0  0  0
    6.7210    2.4087    0.0000 C   0  0  2  0  0  0  0  0  0  0  0  0
    4.5981   -0.3465    0.0000 C   0  0  0  0  0  0  0  0  0  0  0  0
    5.4641    2.1535    0.0000 C   0  0  0  0  0  0  0  0  0  0  0  0
    3.7320    1.1535    0.0000 C   0  0  0  0  0  0  0  0  0  0  0  0
    3.7320    0.1535    0.0000 C   0  0  0  0  0  0  0  0  0  0  0  0
    6.0531    3.1530    0.0000 C   0  0  0  0  0  0  0  0  0  0  0  0
    7.6995    2.6150    0.0000 C   0  0  0  0  0  0  0  0  0  0  0  0
    4.5981   -1.3465    0.0000 C   0  0  0  0  0  0  0  0  0  0  0  0
    8.0102    3.5655    0.0000 C   0  0  0  0  0  0  0  0  0  0  0  0
    3.7320   -1.8465    0.0000 C   0  0  0  0  0  0  0  0  0  0  0  0
    8.9887    3.7717    0.0000 C   0  0  1  0  0  0  0  0  0  0  0  0
    3.7320   -2.8465    0.0000 C   0  0  0  0  0  0  0  0  0  0  0  0
    9.2993    4.7222    0.0000 C   0  0  0  0  0  0  0  0  0  0  0  0
    4.5981   -3.3465    0.0000 C   0  0  0  0  0  0  0  0  0  0  0  0
    9.6565    3.0274    0.0000 C   0  0  0  0  0  0  0  0  0  0  0  0
    2.8660   -3.3465    0.0000 C   0  0  0  0  0  0  0  0  0  0  0  0
    4.5981   -4.3465    0.0000 C   0  0  2  0  0  0  0  0  0  0  0  0
    2.8660   -4.3465    0.0000 C   0  0  0  0  0  0  0  0  0  0  0  0
    3.7320   -4.8465    0.0000 C   0  0  0  0  0  0  0  0  0  0  0  0
   10.2778    4.9284    0.0000 C   0  0  0  0  0  0  0  0  0  0  0  0
    8.6315    5.4665    0.0000 C   0  0  0  0  0  0  0  0  0  0  0  0
    2.0000   -2.8465    0.0000 C   0  0  0  0  0  0  0  0  0  0  0  0
 24  1  1  1  0  0  0
  2  3  1  0  0  0  0
  2  4  1  0  0  0  0
  2  7  1  0  0  0  0
  2 10  1  1  0  0  0
  3  5  1  0  0  0  0
  3  8  1  0  0  0  0
  4  6  1  0  0  0  0
  4  9  1  0  0  0  0
  5  6  1  0  0  0  0
  7 11  1  0  0  0  0
  8 13  1  6  0  0  0
  8 14  1  0  0  0  0
  9 12  1  0  0  0  0
  9 15  2  0  0  0  0
 11 12  1  0  0  0  0
 14 16  2  0  0  0  0
 15 17  1  0  0  0  0
 16 18  1  0  0  0  0
 17 19  2  0  0  0  0
 18 20  1  0  0  0  0
 18 22  1  1  0  0  0
 19 21  1  0  0  0  0
 19 23  1  0  0  0  0
 20 27  1  0  0  0  0
 20 28  1  0  0  0  0
 21 24  1  0  0  0  0
 23 25  1  0  0  0  0
 23 29  2  0  0  0  0
 24 26  1  0  0  0  0
 25 26  1  0  0  0  0
M  END
> <PUBCHEM_COMPOUND_CID>
86280331

> <PUBCHEM_COMPOUND_CANONICALIZED>
1

> <PUBCHEM_CACTVS_COMPLEXITY>
678

> <PUBCHEM_CACTVS_HBOND_ACCEPTOR>
1

> <PUBCHEM_CACTVS_HBOND_DONOR>
1

> <PUBCHEM_CACTVS_ROTATABLE_BOND>
5

> <PUBCHEM_CACTVS_SUBSKEYS>
AAADcfB4IAAAAAAAAAAAAAAAAAAAAYAAAAAwYAAAAAAAAGAAAAAAGgAACAAADxSggAICAAAAAgCAAiBCAAAAAAAgAAAICAAAAAgIEAIAAQAAQAAEwAAIgAOAwMAPgAAAAAAAAAAAAAAAACAAAQAACAAAAA==

> <PUBCHEM_IUPAC_OPENEYE_NAME>
(1~{S},3~{E})-3-[(2~{E})-2-[(1~{R},7~{a}~{R})-7~{a}-methyl-1-[(~{E},1~{R},4~{R})-1,4,5-trimethylhex-2-enyl]-2,3,3~{a},5,6,7-hexahydro-1~{H}-inden-4-ylidene]ethylidene]-4-methylene-cyclohexanol

> <PUBCHEM_IUPAC_CAS_NAME>
(1~{S},3~{E})-3-[(2~{E})-2-[(1~{R},7~{a}~{R})-1-[(~{E},2~{R},5~{R})-5,6-dimethylhept-3-en-2-yl]-7~{a}-methyl-2,3,3~{a},5,6,7-hexahydro-1~{H}-inden-4-ylidene]ethylidene]-4-methylene-1-cyclohexanol

> <PUBCHEM_IUPAC_NAME>
(1~{S},3~{E})-3-[(2~{E})-2-[(1~{R},7~{a}~{R})-1-[(~{E},2~{R},5~{R})-5,6-dimethylhept-3-en-2-yl]-7~{a}-methyl-2,3,3~{a},5,6,7-hexahydro-1~{H}-inden-4-ylidene]ethylidene]-4-methylidenecyclohexan-1-ol

> <PUBCHEM_IUPAC_SYSTEMATIC_NAME>
(1~{S},3~{E})-3-[(2~{E})-2-[(1~{R},7~{a}~{R})-1-[(~{E},2~{R},5~{R})-5,6-dimethylhept-3-en-2-yl]-7~{a}-methyl-2,3,3~{a},5,6,7-hexahydro-1~{H}-inden-4-ylidene]ethylidene]-4-methylidene-cyclohexan-1-ol

> <PUBCHEM_IUPAC_TRADITIONAL_NAME>
(1~{S},3~{E})-3-[(2~{E})-2-[(1~{R},7~{a}~{R})-7~{a}-methyl-1-[(~{E},1~{R},4~{R})-1,4,5-trimethylhex-2-enyl]-2,3,3~{a},5,6,7-hexahydro-1~{H}-inden-4-ylidene]ethylidene]-4-methylene-cyclohexanol

> <PUBCHEM_IUPAC_INCHI>
InChI=1S/C28H44O/c1-19(2)20(3)9-10-22(5)26-15-16-27-23(8-7-17-28(26,27)6)12-13-24-18-25(29)14-11-21(24)4/h9-10,12-13,19-20,22,25-27,29H,4,7-8,11,14-18H2,1-3,5-6H3/b10-9+,23-12+,24-13+/t20-,22+,25-,26+,27?,28+/m0/s1

> <PUBCHEM_IUPAC_INCHIKEY>
MECHNRXZTMCUDQ-UIDIZDHFSA-N

> <PUBCHEM_XLOGP3_AA>
7.4

> <PUBCHEM_EXACT_MASS>
396.339

> <PUBCHEM_MOLECULAR_FORMULA>
C28H44O

> <PUBCHEM_MOLECULAR_WEIGHT>
396.659

> <PUBCHEM_OPENEYE_CAN_SMILES>
CC(C)C(C)C=CC(C)C1CCC2C1(CCCC2=CC=C3CC(CCC3=C)O)C

> <PUBCHEM_OPENEYE_ISO_SMILES>
C[C@H](/C=C/[C@H](C)C(C)C)[C@H]1CCC\2[C@@]1(CCC/C2=C\C=C\3/C[C@H](CCC3=C)O)C

> <PUBCHEM_CACTVS_TPSA>
20.2

> <PUBCHEM_MONOISOTOPIC_WEIGHT>
396.339

> <PUBCHEM_TOTAL_CHARGE>
0

> <PUBCHEM_HEAVY_ATOM_COUNT>
29

> <PUBCHEM_ATOM_DEF_STEREO_COUNT>
5

> <PUBCHEM_ATOM_UDEF_STEREO_COUNT>
1

> <PUBCHEM_BOND_DEF_STEREO_COUNT>
3

> <PUBCHEM_BOND_UDEF_STEREO_COUNT>
0

> <PUBCHEM_ISOTOPIC_ATOM_COUNT>
0

> <PUBCHEM_COMPONENT_COUNT>
1

> <PUBCHEM_CACTVS_TAUTO_COUNT>
-1

> <PUBCHEM_COORDINATE_TYPE>
1
5
255

> <PUBCHEM_BONDANNOTATIONS>
24  1  5
18  22  5
2  10  5
3  30  6
4  6  3
8  13  6

$$$$
44630304
  -OEChem-02061914152D

 25 29  0     1  0  0  0  0  0999 V2000
    5.8776    0.5374    0.0000 O   0  0  0  0  0  0  0  0  0  0  0  0
    2.1162   -1.7746    0.0000 O   0  0  0  0  0  0  0  0  0  0  0  0
    8.8222   -0.5632    0.0000 O   0  0  0  0  0  0  0  0  0  0  0  0
    8.2994    1.0940    0.0000 O   0  0  0  0  0  0  0  0  0  0  0  0
    4.8007    1.7658    0.0000 O   0  0  0  0  0  0  0  0  0  0  0  0
    6.5267    1.6203    0.0000 O   0  0  0  0  0  0  0  0  0  0  0  0
    4.8095   -0.3508    0.0000 C   0  0  1  0  0  0  0  0  0  0  0  0
    5.1114   -1.2180    0.0000 C   0  0  1  0  0  0  0  0  0  0  0  0
    6.2865   -0.3224    0.0000 C   0  0  3  0  0  0  0  0  0  0  0  0
    6.0235   -1.1965    0.0000 C   0  0  2  0  0  0  0  0  0  0  0  0
    5.5377    0.1984    0.0000 C   0  0  1  0  0  0  0  0  0  0  0  0
    4.1135   -1.1832    0.0000 C   0  0  0  0  0  0  0  0  0  0  0  0
    7.2038   -0.1064    0.0000 C   0  0  2  0  0  0  0  0  0  0  0  0
    3.0606   -1.4458    0.0000 C   0  0  3  0  0  0  0  0  0  0  0  0
    3.9426   -0.0462    0.0000 C   0  0  0  0  0  0  0  0  0  0  0  0
    4.6212   -1.9946    0.0000 C   0  0  0  0  0  0  0  0  0  0  0  0
    3.7088   -2.0958    0.0000 C   0  0  0  0  0  0  0  0  0  0  0  0
    3.1650   -0.5332    0.0000 C   0  0  0  0  0  0  0  0  0  0  0  0
    6.6612   -1.9110    0.0000 C   0  0  0  0  0  0  0  0  0  0  0  0
    7.8489   -0.7926    0.0000 C   0  0  1  0  0  0  0  0  0  0  0  0
    7.4686    0.5374    0.0000 C   0  0  0  0  0  0  0  0  0  0  0  0
    5.6217    1.1949    0.0000 C   0  0  0  0  0  0  0  0  0  0  0  0
    8.1872    0.0748    0.0000 C   0  0  0  0  0  0  0  0  0  0  0  0
    7.5774   -1.6953    0.0000 C   0  0  0  0  0  0  0  0  0  0  0  0
    2.3614    0.0619    0.0000 C   0  0  0  0  0  0  0  0  0  0  0  0
 10  1  1  6  0  0  0
  1 21  1  0  0  0  0
  2 14  1  0  0  0  0
 20  3  1  6  0  0  0
  4 21  2  0  0  0  0
  5 22  1  0  0  0  0
  6 22  2  0  0  0  0
  7  8  1  0  0  0  0
  7 11  1  0  0  0  0
  7 12  1  6  0  0  0
  7 15  1  0  0  0  0
  8 10  1  0  0  0  0
  8 16  1  0  0  0  0
  9 10  1  0  0  0  0
  9 11  1  0  0  0  0
  9 13  1  0  0  0  0
 10 19  1  0  0  0  0
 11 22  1  0  0  0  0
 12 14  1  0  0  0  0
 13 20  1  0  0  0  0
 13 21  1  0  0  0  0
 13 23  1  6  0  0  0
 14 17  1  0  0  0  0
 14 18  1  0  0  0  0
 15 18  1  0  0  0  0
 16 17  1  0  0  0  0
 18 25  2  0  0  0  0
 19 24  2  0  0  0  0
 20 24  1  0  0  0  0
M  END
> <PUBCHEM_COMPOUND_CID>
44630304

> <PUBCHEM_COMPOUND_CANONICALIZED>
1

> <PUBCHEM_CACTVS_COMPLEXITY>
772

> <PUBCHEM_CACTVS_HBOND_ACCEPTOR>
6

> <PUBCHEM_CACTVS_HBOND_DONOR>
3

> <PUBCHEM_CACTVS_ROTATABLE_BOND>
1

> <PUBCHEM_CACTVS_SUBSKEYS>
AAADceB4OAAAAAAAAAAAAAAAAAAAAaMEAAAwQAAABggSAGDAAAAAGgAACAAAD1SggAICCAAABgCIAiDSCAAAAAAgAAAICAEAAAgAFBYAIQACUAAFoAAIMAPK7vzPgAAAAAAAAADAAAYAACAAAYAADAAAAA==

> <PUBCHEM_IUPAC_OPENEYE_NAME>
(1~{R},2~{S},8~{S},9~{R},11~{R},12~{R})-5,12-dihydroxy-11-methyl-6-methylene-16-oxo-15-oxapentacyclo[9.3.2.1^{5,8}.0^{1,10}.0^{2,8}]heptadec-13-ene-9-carboxylic acid

> <PUBCHEM_IUPAC_CAS_NAME>
(1~{R},2~{S},8~{S},9~{R},11~{R},12~{R})-5,12-dihydroxy-11-methyl-6-methylene-16-oxo-15-oxapentacyclo[9.3.2.1^{5,8}.0^{1,10}.0^{2,8}]heptadec-13-ene-9-carboxylic acid

> <PUBCHEM_IUPAC_NAME>
(1~{R},2~{S},8~{S},9~{R},11~{R},12~{R})-5,12-dihydroxy-11-methyl-6-methylidene-16-oxo-15-oxapentacyclo[9.3.2.1^{5,8}.0^{1,10}.0^{2,8}]heptadec-13-ene-9-carboxylic acid

> <PUBCHEM_IUPAC_SYSTEMATIC_NAME>
(1~{R},2~{S},8~{S},9~{R},11~{R},12~{R})-11-methyl-6-methylidene-5,12-bis(oxidanyl)-16-oxidanylidene-15-oxapentacyclo[9.3.2.1^{5,8}.0^{1,10}.0^{2,8}]heptadec-13-ene-9-carboxylic acid

> <PUBCHEM_IUPAC_TRADITIONAL_NAME>
(1~{R},2~{S},8~{S},9~{R},11~{R},12~{R})-5,12-dihydroxy-16-keto-11-methyl-6-methylene-15-oxapentacyclo[9.3.2.1^{5,8}.0^{1,10}.0^{2,8}]heptadec-13-ene-9-carboxylic acid

> <PUBCHEM_IUPAC_INCHI>
InChI=1S/C19H22O6/c1-9-7-17-8-18(9,24)5-3-10(17)19-6-4-11(20)16(2,15(23)25-19)13(19)12(17)14(21)22/h4,6,10-13,20,24H,1,3,5,7-8H2,2H3,(H,21,22)/t10-,11+,12-,13?,16-,17-,18?,19+/m0/s1

> <PUBCHEM_IUPAC_INCHIKEY>
IXORZMNAPKEEDV-AFTJMJRQSA-N

> <PUBCHEM_XLOGP3>
0.2

> <PUBCHEM_EXACT_MASS>
346.142

> <PUBCHEM_MOLECULAR_FORMULA>
C19H22O6

> <PUBCHEM_MOLECULAR_WEIGHT>
346.379

> <PUBCHEM_OPENEYE_CAN_SMILES>
CC12C(C=CC3(C1C(C45C3CCC(C4)(C(=C)C5)O)C(=O)O)OC2=O)O

> <PUBCHEM_OPENEYE_ISO_SMILES>
C[C@]12[C@@H](C=C[C@@]3(C1[C@H]([C@]45[C@@H]3CCC(C4)(C(=C)C5)O)C(=O)O)OC2=O)O

> <PUBCHEM_CACTVS_TPSA>
104

> <PUBCHEM_MONOISOTOPIC_WEIGHT>
346.142

> <PUBCHEM_TOTAL_CHARGE>
0

> <PUBCHEM_HEAVY_ATOM_COUNT>
25

> <PUBCHEM_ATOM_DEF_STEREO_COUNT>
6

> <PUBCHEM_ATOM_UDEF_STEREO_COUNT>
2

> <PUBCHEM_BOND_DEF_STEREO_COUNT>
0

> <PUBCHEM_BOND_UDEF_STEREO_COUNT>
0

> <PUBCHEM_ISOTOPIC_ATOM_COUNT>
0

> <PUBCHEM_COMPONENT_COUNT>
1

> <PUBCHEM_CACTVS_TAUTO_COUNT>
-1

> <PUBCHEM_COORDINATE_TYPE>
1
5
255

> <PUBCHEM_BONDANNOTATIONS>
10  1  6
13  23  6
14  2  3
20  3  6
7  12  6
8  26  6
9  11  3

$$$$
240
  -OEChem-02061913062D

  8  8  0     0  0  0  0  0  0999 V2000
    3.7320    1.7500    0.0000 O   0  0  0  0  0  0  0  0  0  0  0  0
    2.8660    0.2500    0.0000 C   0  0  0  0  0  0  0  0  0  0  0  0
    2.0000   -0.2500    0.0000 C   0  0  0  0  0  0  0  0  0  0  0  0
    3.7320   -0.2500    0.0000 C   0  0  0  0  0  0  0  0  0  0  0  0
    2.0000   -1.2500    0.0000 C   0  0  0  0  0  0  0  0  0  0  0  0
    3.7320   -1.2500    0.0000 C   0  0  0  0  0  0  0  0  0  0  0  0
    2.8660   -1.7500    0.0000 C   0  0  0  0  0  0  0  0  0  0  0  0
    2.8660    1.2500    0.0000 C   0  0  0  0  0  0  0  0  0  0  0  0
  1  8  2  0  0  0  0
  2  3  2  0  0  0  0
  2  4  1  0  0  0  0
  2  8  1  0  0  0  0
  3  5  1  0  0  0  0
  4  6  2  0  0  0  0
  5  7  2  0  0  0  0
  6  7  1  0  0  0  0
M  END
> <PUBCHEM_COMPOUND_CID>
240

> <PUBCHEM_COMPOUND_CANONICALIZED>
1

> <PUBCHEM_CACTVS_COMPLEXITY>
72.5

> <PUBCHEM_CACTVS_HBOND_ACCEPTOR>
1

> <PUBCHEM_CACTVS_HBOND_DONOR>
0

> <PUBCHEM_CACTVS_ROTATABLE_BOND>
1

> <PUBCHEM_CACTVS_SUBSKEYS>
AAADcYBgIAAAAAAAAAAAAAAAAAAAAAAAAAAwAAAAAAAAAAABAAAAGgAAAAAADACgmAIwAIAAAACIAihSgAACAAAkAAAIiAEAAMgIIDKAFRCAIQAggAAIiYcIiACOAAAAAAAAAAAAAAAAAAAAAAAAAAAAAA==

> <PUBCHEM_IUPAC_OPENEYE_NAME>
benzaldehyde

> <PUBCHEM_IUPAC_CAS_NAME>
benzaldehyde

> <PUBCHEM_IUPAC_NAME>
benzaldehyde

> <PUBCHEM_IUPAC_SYSTEMATIC_NAME>
benzaldehyde

> <PUBCHEM_IUPAC_TRADITIONAL_NAME>
benzaldehyde

> <PUBCHEM_IUPAC_INCHI>
InChI=1S/C7H6O/c8-6-7-4-2-1-3-5-7/h1-6H

> <PUBCHEM_IUPAC_INCHIKEY>
HUMNYLRZRPPJDN-UHFFFAOYSA-N

> <PUBCHEM_XLOGP3>
1.5

> <PUBCHEM_EXACT_MASS>
106.042

> <PUBCHEM_MOLECULAR_FORMULA>
C7H6O

> <PUBCHEM_MOLECULAR_WEIGHT>
106.124

> <PUBCHEM_OPENEYE_CAN_SMILES>
C1=CC=C(C=C1)C=O

> <PUBCHEM_OPENEYE_ISO_SMILES>
C1=CC=C(C=C1)C=O

> <PUBCHEM_CACTVS_TPSA>
17.1

> <PUBCHEM_MONOISOTOPIC_WEIGHT>
106.042

> <PUBCHEM_TOTAL_CHARGE>
0

> <PUBCHEM_HEAVY_ATOM_COUNT>
8

> <PUBCHEM_ATOM_DEF_STEREO_COUNT>
0

> <PUBCHEM_ATOM_UDEF_STEREO_COUNT>
0

> <PUBCHEM_BOND_DEF_STEREO_COUNT>
0

> <PUBCHEM_BOND_UDEF_STEREO_COUNT>
0

> <PUBCHEM_ISOTOPIC_ATOM_COUNT>
0

> <PUBCHEM_COMPONENT_COUNT>
1

> <PUBCHEM_CACTVS_TAUTO_COUNT>
-1

> <PUBCHEM_COORDINATE_TYPE>
1
5
255

> <PUBCHEM_BONDANNOTATIONS>
2  3  8
2  4  8
3  5  8
4  6  8
5  7  8
6  7  8

$$$$
7768
  -OEChem-02061913072D

  8  8  0     0  0  0  0  0  0999 V2000
    2.0000   -0.9749    0.0000 O   0  0  0  0  0  0  0  0  0  0  0  0
    3.6828   -0.7853    0.0000 N   0  0  0  0  0  0  0  0  0  0  0  0
    4.1828    1.4053    0.0000 C   0  0  0  0  0  0  0  0  0  0  0  0
    4.8063    0.6235    0.0000 C   0  0  0  0  0  0  0  0  0  0  0  0
    3.1828    1.4053    0.0000 C   0  0  0  0  0  0  0  0  0  0  0  0
    4.5838   -0.3514    0.0000 C   0  0  0  0  0  0  0  0  0  0  0  0
    2.5593    0.6235    0.0000 C   0  0  0  0  0  0  0  0  0  0  0  0
    2.7818   -0.3514    0.0000 C   0  0  0  0  0  0  0  0  0  0  0  0
  1  8  2  0  0  0  0
  2  6  1  0  0  0  0
  2  8  1  0  0  0  0
  3  4  1  0  0  0  0
  3  5  1  0  0  0  0
  4  6  1  0  0  0  0
  5  7  1  0  0  0  0
  7  8  1  0  0  0  0
M  END
> <PUBCHEM_COMPOUND_CID>
7768

> <PUBCHEM_COMPOUND_CANONICALIZED>
1

> <PUBCHEM_CACTVS_COMPLEXITY>
90.5

> <PUBCHEM_CACTVS_HBOND_ACCEPTOR>
1

> <PUBCHEM_CACTVS_HBOND_DONOR>
1

> <PUBCHEM_CACTVS_ROTATABLE_BOND>
0

> <PUBCHEM_CACTVS_SUBSKEYS>
AAADccBiIAAAAAAAAAAAAAAAAAAAAAAAAAAAAAAABYAAAAAAAAAAHgAQAAAACADBgAQAAALAAAAIAAEQEAAAAAAAAAAAAIEIAAAAABIAgAAEAAAAFgCAAAEYCAAAAAAAAAAAAAAAAAAAAAAAAAAAAAAAAA==

> <PUBCHEM_IUPAC_OPENEYE_NAME>
azepan-2-one

> <PUBCHEM_IUPAC_CAS_NAME>
2-azepanone

> <PUBCHEM_IUPAC_NAME>
azepan-2-one

> <PUBCHEM_IUPAC_SYSTEMATIC_NAME>
azepan-2-one

> <PUBCHEM_IUPAC_TRADITIONAL_NAME>
azepan-2-one

> <PUBCHEM_IUPAC_INCHI>
InChI=1S/C6H11NO/c8-6-4-2-1-3-5-7-6/h1-5H2,(H,7,8)

> <PUBCHEM_IUPAC_INCHIKEY>
JBKVHLHDHHXQEQ-UHFFFAOYSA-N

> <PUBCHEM_XLOGP3>
-0.1

> <PUBCHEM_EXACT_MASS>
113.084

> <PUBCHEM_MOLECULAR_FORMULA>
C6H11NO

> <PUBCHEM_MOLECULAR_WEIGHT>
113.16

> <PUBCHEM_OPENEYE_CAN_SMILES>
C1CCC(=O)NCC1

> <PUBCHEM_OPENEYE_ISO_SMILES>
C1CCC(=O)NCC1

> <PUBCHEM_CACTVS_TPSA>
29.1

> <PUBCHEM_MONOISOTOPIC_WEIGHT>
113.084

> <PUBCHEM_TOTAL_CHARGE>
0

> <PUBCHEM_HEAVY_ATOM_COUNT>
8

> <PUBCHEM_ATOM_DEF_STEREO_COUNT>
0

> <PUBCHEM_ATOM_UDEF_STEREO_COUNT>
0

> <PUBCHEM_BOND_DEF_STEREO_COUNT>
0

> <PUBCHEM_BOND_UDEF_STEREO_COUNT>
0

> <PUBCHEM_ISOTOPIC_ATOM_COUNT>
0

> <PUBCHEM_COMPONENT_COUNT>
1

> <PUBCHEM_CACTVS_TAUTO_COUNT>
-1

> <PUBCHEM_COORDINATE_TYPE>
1
5
255

$$$$
439568
  -OEChem-02061913092D

 11 12  0     1  0  0  0  0  0999 V2000
    2.6176   -2.1937    0.0000 O   0  0  0  0  0  0  0  0  0  0  0  0
    4.4130   -0.6953    0.0000 C   0  0  3  0  0  0  0  0  0  0  0  0
    3.9352    1.2532    0.0000 C   0  0  0  0  0  0  0  0  0  0  0  0
    4.6718    0.2706    0.0000 C   0  0  3  0  0  0  0  0  0  0  0  0
    3.0403   -1.2874    0.0000 C   0  0  2  0  0  0  0  0  0  0  0  0
    5.8119   -1.2042    0.0000 C   0  0  0  0  0  0  0  0  0  0  0  0
    2.6982   -0.3477    0.0000 C   0  0  0  0  0  0  0  0  0  0  0  0
    6.0707   -0.2382    0.0000 C   0  0  0  0  0  0  0  0  0  0  0  0
    4.1541   -1.6613    0.0000 C   0  0  0  0  0  0  0  0  0  0  0  0
    4.0397    2.2477    0.0000 C   0  0  0  0  0  0  0  0  0  0  0  0
    3.0216    1.6599    0.0000 C   0  0  0  0  0  0  0  0  0  0  0  0
  5  1  1  1  0  0  0
  2  3  1  0  0  0  0
  2  5  1  0  0  0  0
  2  6  1  0  0  0  0
  2  9  1  0  0  0  0
  3  4  1  0  0  0  0
  3 10  1  0  0  0  0
  3 11  1  0  0  0  0
  4  7  1  0  0  0  0
  4  8  1  0  0  0  0
  5  7  1  0  0  0  0
  6  8  1  0  0  0  0
M  END
> <PUBCHEM_COMPOUND_CID>
439568

> <PUBCHEM_COMPOUND_CANONICALIZED>
1

> <PUBCHEM_CACTVS_COMPLEXITY>
185

> <PUBCHEM_CACTVS_HBOND_ACCEPTOR>
1

> <PUBCHEM_CACTVS_HBOND_DONOR>
1

> <PUBCHEM_CACTVS_ROTATABLE_BOND>
0

> <PUBCHEM_CACTVS_SUBSKEYS>
AAADceBwIAAAAAAAAAAAAAAAAAAAAYMAAAAwAAAAAAAAAAAAAAAAGgAACAAADxSggAICAAAAAgAAAAAAAAAAAAAAAAAAAAAAAAAAEAIAAAAAQAAEAAAAAAGAwPAPgAAAAAAAAACAAAIAABAAAYAADAAAAA==

> <PUBCHEM_IUPAC_OPENEYE_NAME>
(2~{S})-1,7,7-trimethylnorbornan-2-ol

> <PUBCHEM_IUPAC_CAS_NAME>
(2~{S})-1,7,7-trimethyl-2-bicyclo[2.2.1]heptanol

> <PUBCHEM_IUPAC_NAME>
(2~{S})-1,7,7-trimethylbicyclo[2.2.1]heptan-2-ol

> <PUBCHEM_IUPAC_SYSTEMATIC_NAME>
(2~{S})-1,7,7-trimethylbicyclo[2.2.1]heptan-2-ol

> <PUBCHEM_IUPAC_TRADITIONAL_NAME>
(2~{S})-1,7,7-trimethylnorbornan-2-ol

> <PUBCHEM_IUPAC_INCHI>
InChI=1S/C10H18O/c1-9(2)7-4-5-10(9,3)8(11)6-7/h7-8,11H,4-6H2,1-3H3/t7?,8-,10?/m0/s1

> <PUBCHEM_IUPAC_INCHIKEY>
DTGKSKDOIYIVQL-ZCUBBSJVSA-N

> <PUBCHEM_XLOGP3>
2.7

> <PUBCHEM_EXACT_MASS>
154.136

> <PUBCHEM_MOLECULAR_FORMULA>
C10H18O

> <PUBCHEM_MOLECULAR_WEIGHT>
154.253

> <PUBCHEM_OPENEYE_CAN_SMILES>
CC1(C2CCC1(C(C2)O)C)C

> <PUBCHEM_OPENEYE_ISO_SMILES>
CC1(C2CCC1([C@H](C2)O)C)C

> <PUBCHEM_CACTVS_TPSA>
20.2

> <PUBCHEM_MONOISOTOPIC_WEIGHT>
154.136

> <PUBCHEM_TOTAL_CHARGE>
0

> <PUBCHEM_HEAVY_ATOM_COUNT>
11

> <PUBCHEM_ATOM_DEF_STEREO_COUNT>
1

> <PUBCHEM_ATOM_UDEF_STEREO_COUNT>
2

> <PUBCHEM_BOND_DEF_STEREO_COUNT>
0

> <PUBCHEM_BOND_UDEF_STEREO_COUNT>
0

> <PUBCHEM_ISOTOPIC_ATOM_COUNT>
0

> <PUBCHEM_COMPONENT_COUNT>
1

> <PUBCHEM_CACTVS_TAUTO_COUNT>
-1

> <PUBCHEM_COORDINATE_TYPE>
1
5
255

> <PUBCHEM_BONDANNOTATIONS>
5  1  5
2  3  3
4  3  3

$$$$
7406
  -OEChem-02061913072D

  9  9  0     0  0  0  0  0  0999 V2000
    2.8660    1.2500    0.0000 C   0  0  0  0  0  0  0  0  0  0  0  0
    2.8660    0.2500    0.0000 C   0  0  0  0  0  0  0  0  0  0  0  0
    3.7320    1.7500    0.0000 C   0  0  0  0  0  0  0  0  0  0  0  0
    2.0000    1.7500    0.0000 C   0  0  0  0  0  0  0  0  0  0  0  0
    2.0000   -0.2500    0.0000 C   0  0  0  0  0  0  0  0  0  0  0  0
    3.7320   -0.2500    0.0000 C   0  0  0  0  0  0  0  0  0  0  0  0
    2.0000   -1.2500    0.0000 C   0  0  0  0  0  0  0  0  0  0  0  0
    3.7320   -1.2500    0.0000 C   0  0  0  0  0  0  0  0  0  0  0  0
    2.8660   -1.7500    0.0000 C   0  0  0  0  0  0  0  0  0  0  0  0
  1  2  1  0  0  0  0
  1  3  1  0  0  0  0
  1  4  1  0  0  0  0
  2  5  2  0  0  0  0
  2  6  1  0  0  0  0
  5  7  1  0  0  0  0
  6  8  2  0  0  0  0
  7  9  2  0  0  0  0
  8  9  1  0  0  0  0
M  END
> <PUBCHEM_COMPOUND_CID>
7406

> <PUBCHEM_COMPOUND_CANONICALIZED>
1

> <PUBCHEM_CACTVS_COMPLEXITY>
68.1

> <PUBCHEM_CACTVS_HBOND_ACCEPTOR>
0

> <PUBCHEM_CACTVS_HBOND_DONOR>
0

> <PUBCHEM_CACTVS_ROTATABLE_BOND>
1

> <PUBCHEM_CACTVS_SUBSKEYS>
AAADccBwAAAAAAAAAAAAAAAAAAAAAAAAAAAwAAAAAAAAAAABAAAAGAAAAAAADQCAGAAyAIAAAACAAiBCAAACAAAgAAAIiAAAAIgIICKAERCAIAAggAAIiAcAgMAOgAAAAAAAAAAAAAAAAAAAAAAAAAAAAA==

> <PUBCHEM_IUPAC_OPENEYE_NAME>
cumene

> <PUBCHEM_IUPAC_CAS_NAME>
cumene

> <PUBCHEM_IUPAC_NAME>
cumene

> <PUBCHEM_IUPAC_SYSTEMATIC_NAME>
propan-2-ylbenzene

> <PUBCHEM_IUPAC_TRADITIONAL_NAME>
cumene

> <PUBCHEM_IUPAC_INCHI>
InChI=1S/C9H12/c1-8(2)9-6-4-3-5-7-9/h3-8H,1-2H3

> <PUBCHEM_IUPAC_INCHIKEY>
RWGFKTVRMDUZSP-UHFFFAOYSA-N

> <PUBCHEM_XLOGP3>
3.7

> <PUBCHEM_EXACT_MASS>
120.094

> <PUBCHEM_MOLECULAR_FORMULA>
C9H12

> <PUBCHEM_MOLECULAR_WEIGHT>
120.195

> <PUBCHEM_OPENEYE_CAN_SMILES>
CC(C)C1=CC=CC=C1

> <PUBCHEM_OPENEYE_ISO_SMILES>
CC(C)C1=CC=CC=C1

> <PUBCHEM_CACTVS_TPSA>
0

> <PUBCHEM_MONOISOTOPIC_WEIGHT>
120.094

> <PUBCHEM_TOTAL_CHARGE>
0

> <PUBCHEM_HEAVY_ATOM_COUNT>
9

> <PUBCHEM_ATOM_DEF_STEREO_COUNT>
0

> <PUBCHEM_ATOM_UDEF_STEREO_COUNT>
0

> <PUBCHEM_BOND_DEF_STEREO_COUNT>
0

> <PUBCHEM_BOND_UDEF_STEREO_COUNT>
0

> <PUBCHEM_ISOTOPIC_ATOM_COUNT>
0

> <PUBCHEM_COMPONENT_COUNT>
1

> <PUBCHEM_CACTVS_TAUTO_COUNT>
-1

> <PUBCHEM_COORDINATE_TYPE>
1
5
255

> <PUBCHEM_BONDANNOTATIONS>
2  5  8
2  6  8
5  7  8
6  8  8
7  9  8
8  9  8

$$$$
7505
  -OEChem-02061913072D

  8  8  0     0  0  0  0  0  0999 V2000
    2.8660    2.0000    0.0000 N   0  0  0  0  0  0  0  0  0  0  0  0
    2.8660    0.0000    0.0000 C   0  0  0  0  0  0  0  0  0  0  0  0
    2.0000   -0.5000    0.0000 C   0  0  0  0  0  0  0  0  0  0  0  0
    3.7320   -0.5000    0.0000 C   0  0  0  0  0  0  0  0  0  0  0  0
    2.0000   -1.5000    0.0000 C   0  0  0  0  0  0  0  0  0  0  0  0
    3.7320   -1.5000    0.0000 C   0  0  0  0  0  0  0  0  0  0  0  0
    2.8660   -2.0000    0.0000 C   0  0  0  0  0  0  0  0  0  0  0  0
    2.8660    1.0000    0.0000 C   0  0  0  0  0  0  0  0  0  0  0  0
  1  8  3  0  0  0  0
  2  3  2  0  0  0  0
  2  4  1  0  0  0  0
  2  8  1  0  0  0  0
  3  5  1  0  0  0  0
  4  6  2  0  0  0  0
  5  7  2  0  0  0  0
  6  7  1  0  0  0  0
M  END
> <PUBCHEM_COMPOUND_CID>
7505

> <PUBCHEM_COMPOUND_CANONICALIZED>
1

> <PUBCHEM_CACTVS_COMPLEXITY>
103

> <PUBCHEM_CACTVS_HBOND_ACCEPTOR>
1

> <PUBCHEM_CACTVS_HBOND_DONOR>
0

> <PUBCHEM_CACTVS_ROTATABLE_BOND>
0

> <PUBCHEM_CACTVS_SUBSKEYS>
AAADcYBiAAAAAAAAAAAAAAAAAAAAAAAAAAAwAAAAAAAAAAABAAAAHAAAAAAADACBGAAwAIAAAACQBiBCAAAiAAAgAAAIiAAAAIgIoCKAERCAIAAggAAIiA8AgAAOAAAAAAAAAAAAAAAAAAAAAAAAAAAAAA==

> <PUBCHEM_IUPAC_OPENEYE_NAME>
benzonitrile

> <PUBCHEM_IUPAC_CAS_NAME>
benzonitrile

> <PUBCHEM_IUPAC_NAME>
benzonitrile

> <PUBCHEM_IUPAC_SYSTEMATIC_NAME>
benzenecarbonitrile

> <PUBCHEM_IUPAC_TRADITIONAL_NAME>
benzonitrile

> <PUBCHEM_IUPAC_INCHI>
InChI=1S/C7H5N/c8-6-7-4-2-1-3-5-7/h1-5H

> <PUBCHEM_IUPAC_INCHIKEY>
JFDZBHWFFUWGJE-UHFFFAOYSA-N

> <PUBCHEM_XLOGP3>
1.6

> <PUBCHEM_EXACT_MASS>
103.042

> <PUBCHEM_MOLECULAR_FORMULA>
C7H5N

> <PUBCHEM_MOLECULAR_WEIGHT>
103.124

> <PUBCHEM_OPENEYE_CAN_SMILES>
C1=CC=C(C=C1)C#N

> <PUBCHEM_OPENEYE_ISO_SMILES>
C1=CC=C(C=C1)C#N

> <PUBCHEM_CACTVS_TPSA>
23.8

> <PUBCHEM_MONOISOTOPIC_WEIGHT>
103.042

> <PUBCHEM_TOTAL_CHARGE>
0

> <PUBCHEM_HEAVY_ATOM_COUNT>
8

> <PUBCHEM_ATOM_DEF_STEREO_COUNT>
0

> <PUBCHEM_ATOM_UDEF_STEREO_COUNT>
0

> <PUBCHEM_BOND_DEF_STEREO_COUNT>
0

> <PUBCHEM_BOND_UDEF_STEREO_COUNT>
0

> <PUBCHEM_ISOTOPIC_ATOM_COUNT>
0

> <PUBCHEM_COMPONENT_COUNT>
1

> <PUBCHEM_CACTVS_TAUTO_COUNT>
-1

> <PUBCHEM_COORDINATE_TYPE>
1
5
255

> <PUBCHEM_BONDANNOTATIONS>
2  3  8
2  4  8
3  5  8
4  6  8
5  7  8
6  7  8

$$$$
6998
  -OEChem-02061913072D

  9  9  0     0  0  0  0  0  0999 V2000
    2.5369    0.2500    0.0000 O   0  0  0  0  0  0  0  0  0  0  0  0
    5.1350    1.7500    0.0000 O   0  0  0  0  0  0  0  0  0  0  0  0
    4.2690    0.2500    0.0000 C   0  0  0  0  0  0  0  0  0  0  0  0
    3.4030   -0.2500    0.0000 C   0  0  0  0  0  0  0  0  0  0  0  0
    5.1350   -0.2500    0.0000 C   0  0  0  0  0  0  0  0  0  0  0  0
    3.4030   -1.2500    0.0000 C   0  0  0  0  0  0  0  0  0  0  0  0
    5.1350   -1.2500    0.0000 C   0  0  0  0  0  0  0  0  0  0  0  0
    4.2690   -1.7500    0.0000 C   0  0  0  0  0  0  0  0  0  0  0  0
    4.2690    1.2500    0.0000 C   0  0  0  0  0  0  0  0  0  0  0  0
  1  4  1  0  0  0  0
  2  9  2  0  0  0  0
  3  4  1  0  0  0  0
  3  5  2  0  0  0  0
  3  9  1  0  0  0  0
  4  6  2  0  0  0  0
  5  7  1  0  0  0  0
  6  8  1  0  0  0  0
  7  8  2  0  0  0  0
M  END
> <PUBCHEM_COMPOUND_CID>
6998

> <PUBCHEM_COMPOUND_CANONICALIZED>
1

> <PUBCHEM_CACTVS_COMPLEXITY>
101

> <PUBCHEM_CACTVS_HBOND_ACCEPTOR>
2

> <PUBCHEM_CACTVS_HBOND_DONOR>
1

> <PUBCHEM_CACTVS_ROTATABLE_BOND>
1

> <PUBCHEM_CACTVS_SUBSKEYS>
AAADcYBgMAAAAAAAAAAAAAAAAAAAAAAAAAAwAAAAAAAAAAABAAAAGgAACAAADASgmAIwBoAAAgCIAihSgAACAAAkIAAIiAEGCMgIJjaCFRKAcUAk4BEImYeIyCCOAAAAAAAIAAAAAAAAABAAAAAAAAAAAA==

> <PUBCHEM_IUPAC_OPENEYE_NAME>
2-hydroxybenzaldehyde

> <PUBCHEM_IUPAC_CAS_NAME>
2-hydroxybenzaldehyde

> <PUBCHEM_IUPAC_NAME>
2-hydroxybenzaldehyde

> <PUBCHEM_IUPAC_SYSTEMATIC_NAME>
2-oxidanylbenzaldehyde

> <PUBCHEM_IUPAC_TRADITIONAL_NAME>
2-hydroxybenzaldehyde

> <PUBCHEM_IUPAC_INCHI>
InChI=1S/C7H6O2/c8-5-6-3-1-2-4-7(6)9/h1-5,9H

> <PUBCHEM_IUPAC_INCHIKEY>
SMQUZDBALVYZAC-UHFFFAOYSA-N

> <PUBCHEM_XLOGP3>
1.8

> <PUBCHEM_EXACT_MASS>
122.037

> <PUBCHEM_MOLECULAR_FORMULA>
C7H6O2

> <PUBCHEM_MOLECULAR_WEIGHT>
122.123

> <PUBCHEM_OPENEYE_CAN_SMILES>
C1=CC=C(C(=C1)C=O)O

> <PUBCHEM_OPENEYE_ISO_SMILES>
C1=CC=C(C(=C1)C=O)O

> <PUBCHEM_CACTVS_TPSA>
37.3

> <PUBCHEM_MONOISOTOPIC_WEIGHT>
122.037

> <PUBCHEM_TOTAL_CHARGE>
0

> <PUBCHEM_HEAVY_ATOM_COUNT>
9

> <PUBCHEM_ATOM_DEF_STEREO_COUNT>
0

> <PUBCHEM_ATOM_UDEF_STEREO_COUNT>
0

> <PUBCHEM_BOND_DEF_STEREO_COUNT>
0

> <PUBCHEM_BOND_UDEF_STEREO_COUNT>
0

> <PUBCHEM_ISOTOPIC_ATOM_COUNT>
0

> <PUBCHEM_COMPONENT_COUNT>
1

> <PUBCHEM_CACTVS_TAUTO_COUNT>
-1

> <PUBCHEM_COORDINATE_TYPE>
1
5
255

> <PUBCHEM_BONDANNOTATIONS>
3  4  8
3  5  8
4  6  8
5  7  8
6  8  8
7  8  8

$$$$
9414
  -OEChem-02061913072D

 16 16  0     0  0  0  0  0  0999 V2000
    3.7320   -1.2500    0.0000 O   0  0  0  0  0  0  0  0  0  0  0  0
    2.0000   -1.2500    0.0000 O   0  0  0  0  0  0  0  0  0  0  0  0
    3.7320    2.7500    0.0000 N   0  0  0  0  0  0  0  0  0  0  0  0
    2.8660   -2.7500    0.0000 N   0  0  0  0  0  0  0  0  0  0  0  0
    3.7320    1.7500    0.0000 C   0  0  0  0  0  0  0  0  0  0  0  0
    4.5981    1.2500    0.0000 C   0  0  0  0  0  0  0  0  0  0  0  0
    2.8660    1.2500    0.0000 C   0  0  0  0  0  0  0  0  0  0  0  0
    4.5981    0.2500    0.0000 C   0  0  0  0  0  0  0  0  0  0  0  0
    2.8660    0.2500    0.0000 C   0  0  0  0  0  0  0  0  0  0  0  0
    3.7320   -0.2500    0.0000 C   0  0  0  0  0  0  0  0  0  0  0  0
    5.4641    1.7500    0.0000 C   0  0  0  0  0  0  0  0  0  0  0  0
    2.0000    1.7500    0.0000 C   0  0  0  0  0  0  0  0  0  0  0  0
    4.5981    3.2500    0.0000 C   0  0  0  0  0  0  0  0  0  0  0  0
    2.8660    3.2500    0.0000 C   0  0  0  0  0  0  0  0  0  0  0  0
    2.8660   -1.7500    0.0000 C   0  0  0  0  0  0  0  0  0  0  0  0
    2.0000   -3.2500    0.0000 C   0  0  0  0  0  0  0  0  0  0  0  0
  1 10  1  0  0  0  0
  1 15  1  0  0  0  0
  2 15  2  0  0  0  0
  3  5  1  0  0  0  0
  3 13  1  0  0  0  0
  3 14  1  0  0  0  0
  4 15  1  0  0  0  0
  4 16  1  0  0  0  0
  5  6  2  0  0  0  0
  5  7  1  0  0  0  0
  6  8  1  0  0  0  0
  6 11  1  0  0  0  0
  7  9  2  0  0  0  0
  7 12  1  0  0  0  0
  8 10  2  0  0  0  0
  9 10  1  0  0  0  0
M  END
> <PUBCHEM_COMPOUND_CID>
9414

> <PUBCHEM_COMPOUND_CANONICALIZED>
1

> <PUBCHEM_CACTVS_COMPLEXITY>
231

> <PUBCHEM_CACTVS_HBOND_ACCEPTOR>
3

> <PUBCHEM_CACTVS_HBOND_DONOR>
1

> <PUBCHEM_CACTVS_ROTATABLE_BOND>
3

> <PUBCHEM_CACTVS_SUBSKEYS>
AAADceBzMAAAAAAAAAAAAAAAAAAAAAAAAAAwAAAAAAAAAAABAAAAHgAQAAAADAyBmAQyzoPABACIAiRCWACCCAAhIAAAiIAOTIkMJiLEsZuMMihkwhFI6AewwFAOAEADAAACAAAAgAYAAAQAAAAAAAAAAA==

> <PUBCHEM_IUPAC_OPENEYE_NAME>
[4-(dimethylamino)-3,5-dimethyl-phenyl] ~{N}-methylcarbamate

> <PUBCHEM_IUPAC_CAS_NAME>
~{N}-methylcarbamic acid [4-(dimethylamino)-3,5-dimethylphenyl] ester

> <PUBCHEM_IUPAC_NAME>
[4-(dimethylamino)-3,5-dimethylphenyl] ~{N}-methylcarbamate

> <PUBCHEM_IUPAC_SYSTEMATIC_NAME>
[4-(dimethylamino)-3,5-dimethyl-phenyl] ~{N}-methylcarbamate

> <PUBCHEM_IUPAC_TRADITIONAL_NAME>
~{N}-methylcarbamic acid [4-(dimethylamino)-3,5-dimethyl-phenyl] ester

> <PUBCHEM_IUPAC_INCHI>
InChI=1S/C12H18N2O2/c1-8-6-10(16-12(15)13-3)7-9(2)11(8)14(4)5/h6-7H,1-5H3,(H,13,15)

> <PUBCHEM_IUPAC_INCHIKEY>
YNEVBPNZHBAYOA-UHFFFAOYSA-N

> <PUBCHEM_XLOGP3>
2.5

> <PUBCHEM_EXACT_MASS>
222.137

> <PUBCHEM_MOLECULAR_FORMULA>
C12H18N2O2

> <PUBCHEM_MOLECULAR_WEIGHT>
222.288

> <PUBCHEM_OPENEYE_CAN_SMILES>
CC1=CC(=CC(=C1N(C)C)C)OC(=O)NC

> <PUBCHEM_OPENEYE_ISO_SMILES>
CC1=CC(=CC(=C1N(C)C)C)OC(=O)NC

> <PUBCHEM_CACTVS_TPSA>
41.6

> <PUBCHEM_MONOISOTOPIC_WEIGHT>
222.137

> <PUBCHEM_TOTAL_CHARGE>
0

> <PUBCHEM_HEAVY_ATOM_COUNT>
16

> <PUBCHEM_ATOM_DEF_STEREO_COUNT>
0

> <PUBCHEM_ATOM_UDEF_STEREO_COUNT>
0

> <PUBCHEM_BOND_DEF_STEREO_COUNT>
0

> <PUBCHEM_BOND_UDEF_STEREO_COUNT>
0

> <PUBCHEM_ISOTOPIC_ATOM_COUNT>
0

> <PUBCHEM_COMPONENT_COUNT>
1

> <PUBCHEM_CACTVS_TAUTO_COUNT>
-1

> <PUBCHEM_COORDINATE_TYPE>
1
5
255

> <PUBCHEM_BONDANNOTATIONS>
5  6  8
5  7  8
6  8  8
7  9  8
8  10  8
9  10  8

$$$$
7184
  -OEChem-02061913072D

 14 14  0     0  0  0  0  0  0999 V2000
    3.7320    0.9050    0.0000 O   0  0  0  0  0  0  0  0  0  0  0  0
    2.0000    0.9050    0.0000 O   0  0  0  0  0  0  0  0  0  0  0  0
    2.8660   -3.5950    0.0000 O   0  0  0  0  0  0  0  0  0  0  0  0
    4.5981    2.4050    0.0000 C   0  0  0  0  0  0  0  0  0  0  0  0
    4.5981    3.4050    0.0000 C   0  0  0  0  0  0  0  0  0  0  0  0
    3.7320    1.9050    0.0000 C   0  0  0  0  0  0  0  0  0  0  0  0
    5.4641    3.9050    0.0000 C   0  0  0  0  0  0  0  0  0  0  0  0
    2.8660   -0.5950    0.0000 C   0  0  0  0  0  0  0  0  0  0  0  0
    2.8660    0.4050    0.0000 C   0  0  0  0  0  0  0  0  0  0  0  0
    2.0000   -1.0950    0.0000 C   0  0  0  0  0  0  0  0  0  0  0  0
    3.7320   -1.0950    0.0000 C   0  0  0  0  0  0  0  0  0  0  0  0
    2.0000   -2.0950    0.0000 C   0  0  0  0  0  0  0  0  0  0  0  0
    3.7320   -2.0950    0.0000 C   0  0  0  0  0  0  0  0  0  0  0  0
    2.8660   -2.5950    0.0000 C   0  0  0  0  0  0  0  0  0  0  0  0
  1  6  1  0  0  0  0
  1  9  1  0  0  0  0
  2  9  2  0  0  0  0
  3 14  1  0  0  0  0
  4  5  1  0  0  0  0
  4  6  1  0  0  0  0
  5  7  1  0  0  0  0
  8  9  1  0  0  0  0
  8 10  2  0  0  0  0
  8 11  1  0  0  0  0
 10 12  1  0  0  0  0
 11 13  2  0  0  0  0
 12 14  2  0  0  0  0
 13 14  1  0  0  0  0
M  END
> <PUBCHEM_COMPOUND_CID>
7184

> <PUBCHEM_COMPOUND_CANONICALIZED>
1

> <PUBCHEM_CACTVS_COMPLEXITY>
171

> <PUBCHEM_CACTVS_HBOND_ACCEPTOR>
3

> <PUBCHEM_CACTVS_HBOND_DONOR>
1

> <PUBCHEM_CACTVS_ROTATABLE_BOND>
5

> <PUBCHEM_CACTVS_SUBSKEYS>
AAADccBwMAAAAAAAAAAAAAAAAAAAAAAAAAAwAAAAAAAAAAABAAAAGgAACAAADASgmAIyDoAABgCIAiDSCAACAAAkIAAIiAEGCMgIJjKCNRqCcQAkwBEIuYeI7CzOIAAAAAAAAABAAAAAAAAAAAAAAAAAAA==

> <PUBCHEM_IUPAC_OPENEYE_NAME>
butyl 4-hydroxybenzoate

> <PUBCHEM_IUPAC_CAS_NAME>
4-hydroxybenzoic acid butyl ester

> <PUBCHEM_IUPAC_NAME>
butyl 4-hydroxybenzoate

> <PUBCHEM_IUPAC_SYSTEMATIC_NAME>
butyl 4-oxidanylbenzoate

> <PUBCHEM_IUPAC_TRADITIONAL_NAME>
4-hydroxybenzoic acid butyl ester

> <PUBCHEM_IUPAC_INCHI>
InChI=1S/C11H14O3/c1-2-3-8-14-11(13)9-4-6-10(12)7-5-9/h4-7,12H,2-3,8H2,1H3

> <PUBCHEM_IUPAC_INCHIKEY>
QFOHBWFCKVYLES-UHFFFAOYSA-N

> <PUBCHEM_XLOGP3>
3.6

> <PUBCHEM_EXACT_MASS>
194.094

> <PUBCHEM_MOLECULAR_FORMULA>
C11H14O3

> <PUBCHEM_MOLECULAR_WEIGHT>
194.23

> <PUBCHEM_OPENEYE_CAN_SMILES>
CCCCOC(=O)C1=CC=C(C=C1)O

> <PUBCHEM_OPENEYE_ISO_SMILES>
CCCCOC(=O)C1=CC=C(C=C1)O

> <PUBCHEM_CACTVS_TPSA>
46.5

> <PUBCHEM_MONOISOTOPIC_WEIGHT>
194.094

> <PUBCHEM_TOTAL_CHARGE>
0

> <PUBCHEM_HEAVY_ATOM_COUNT>
14

> <PUBCHEM_ATOM_DEF_STEREO_COUNT>
0

> <PUBCHEM_ATOM_UDEF_STEREO_COUNT>
0

> <PUBCHEM_BOND_DEF_STEREO_COUNT>
0

> <PUBCHEM_BOND_UDEF_STEREO_COUNT>
0

> <PUBCHEM_ISOTOPIC_ATOM_COUNT>
0

> <PUBCHEM_COMPONENT_COUNT>
1

> <PUBCHEM_CACTVS_TAUTO_COUNT>
-1

> <PUBCHEM_COORDINATE_TYPE>
1
5
255

> <PUBCHEM_BONDANNOTATIONS>
10  12  8
11  13  8
12  14  8
13  14  8
8  10  8
8  11  8

$$$$
8380
  -OEChem-02061913072D

 30 30  0     0  0  0  0  0  0999 V2000
   12.3923   -2.0000    0.0000 O   0  0  0  0  0  0  0  0  0  0  0  0
    8.9282   -4.0000    0.0000 O   0  0  0  0  0  0  0  0  0  0  0  0
   10.6603   -2.0000    0.0000 O   0  0  0  0  0  0  0  0  0  0  0  0
    9.7942   -2.5000    0.0000 O   0  0  0  0  0  0  0  0  0  0  0  0
   14.1244    2.0000    0.0000 C   0  0  0  0  0  0  0  0  0  0  0  0
   14.9904    2.5000    0.0000 C   0  0  0  0  0  0  0  0  0  0  0  0
   14.1244    1.0000    0.0000 C   0  0  0  0  0  0  0  0  0  0  0  0
   14.9904    3.5000    0.0000 C   0  0  0  0  0  0  0  0  0  0  0  0
   13.2583    0.5000    0.0000 C   0  0  0  0  0  0  0  0  0  0  0  0
   15.8564    4.0000    0.0000 C   0  0  0  0  0  0  0  0  0  0  0  0
   13.2583   -0.5000    0.0000 C   0  0  0  0  0  0  0  0  0  0  0  0
    5.4641   -4.0000    0.0000 C   0  0  0  0  0  0  0  0  0  0  0  0
    4.5981   -3.5000    0.0000 C   0  0  0  0  0  0  0  0  0  0  0  0
    6.3301   -3.5000    0.0000 C   0  0  0  0  0  0  0  0  0  0  0  0
    3.7320   -4.0000    0.0000 C   0  0  0  0  0  0  0  0  0  0  0  0
   15.8564    5.0000    0.0000 C   0  0  0  0  0  0  0  0  0  0  0  0
    7.1962   -4.0000    0.0000 C   0  0  0  0  0  0  0  0  0  0  0  0
   12.3923   -1.0000    0.0000 C   0  0  0  0  0  0  0  0  0  0  0  0
    2.8660   -3.5000    0.0000 C   0  0  0  0  0  0  0  0  0  0  0  0
    8.0622   -3.5000    0.0000 C   0  0  0  0  0  0  0  0  0  0  0  0
   16.7224    5.5000    0.0000 C   0  0  0  0  0  0  0  0  0  0  0  0
    2.0000   -4.0000    0.0000 C   0  0  0  0  0  0  0  0  0  0  0  0
   11.5263   -2.5000    0.0000 C   0  0  0  0  0  0  0  0  0  0  0  0
   11.5263   -3.5000    0.0000 C   0  0  0  0  0  0  0  0  0  0  0  0
   10.6603   -4.0000    0.0000 C   0  0  0  0  0  0  0  0  0  0  0  0
    9.7942   -3.5000    0.0000 C   0  0  0  0  0  0  0  0  0  0  0  0
   12.3923   -4.0000    0.0000 C   0  0  0  0  0  0  0  0  0  0  0  0
   10.6603   -5.0000    0.0000 C   0  0  0  0  0  0  0  0  0  0  0  0
   12.3923   -5.0000    0.0000 C   0  0  0  0  0  0  0  0  0  0  0  0
   11.5263   -5.5000    0.0000 C   0  0  0  0  0  0  0  0  0  0  0  0
  1 18  1  0  0  0  0
  1 23  1  0  0  0  0
  2 20  1  0  0  0  0
  2 26  1  0  0  0  0
  3 23  2  0  0  0  0
  4 26  2  0  0  0  0
  5  6  1  0  0  0  0
  5  7  1  0  0  0  0
  6  8  1  0  0  0  0
  7  9  1  0  0  0  0
  8 10  1  0  0  0  0
  9 11  1  0  0  0  0
 10 16  1  0  0  0  0
 11 18  1  0  0  0  0
 12 13  1  0  0  0  0
 12 14  1  0  0  0  0
 13 15  1  0  0  0  0
 14 17  1  0  0  0  0
 15 19  1  0  0  0  0
 16 21  1  0  0  0  0
 17 20  1  0  0  0  0
 19 22  1  0  0  0  0
 23 24  1  0  0  0  0
 24 25  1  0  0  0  0
 24 27  2  0  0  0  0
 25 26  1  0  0  0  0
 25 28  2  0  0  0  0
 27 29  1  0  0  0  0
 28 30  1  0  0  0  0
 29 30  2  0  0  0  0
M  END
> <PUBCHEM_COMPOUND_CID>
8380

> <PUBCHEM_COMPOUND_CANONICALIZED>
1

> <PUBCHEM_CACTVS_COMPLEXITY>
435

> <PUBCHEM_CACTVS_HBOND_ACCEPTOR>
4

> <PUBCHEM_CACTVS_HBOND_DONOR>
0

> <PUBCHEM_CACTVS_ROTATABLE_BOND>
20

> <PUBCHEM_CACTVS_SUBSKEYS>
AAADcfB4OAAAAAAAAAAAAAAAAAAAAAAAAAAwAAAAAAAAAAABAAAAGgAAAAAADACgmAIyCIAABACIAiDSCAACAAAkAAAIiAEACMgIJjKANRiCMQAkwAEIqYfLyKCOgAAAAAAQAAAAAAAAACAAAAAAAAAAAA==

> <PUBCHEM_IUPAC_OPENEYE_NAME>
~{O}2-decyl ~{O}1-octyl benzene-1,2-dicarboxylate

> <PUBCHEM_IUPAC_CAS_NAME>
benzene-1,2-dicarboxylic acid ~{O}2-decyl ester ~{O}1-octyl ester

> <PUBCHEM_IUPAC_NAME>
2-~{O}-decyl 1-~{O}-octyl benzene-1,2-dicarboxylate

> <PUBCHEM_IUPAC_SYSTEMATIC_NAME>
~{O}2-decyl ~{O}1-octyl benzene-1,2-dicarboxylate

> <PUBCHEM_IUPAC_TRADITIONAL_NAME>
benzene-1,2-dicarboxylic acid ~{O}2-decyl ester ~{O}1-octyl ester

> <PUBCHEM_IUPAC_INCHI>
InChI=1S/C26H42O4/c1-3-5-7-9-11-12-14-18-22-30-26(28)24-20-16-15-19-23(24)25(27)29-21-17-13-10-8-6-4-2/h15-16,19-20H,3-14,17-18,21-22H2,1-2H3

> <PUBCHEM_IUPAC_INCHIKEY>
LVAGMBHLXLZJKZ-UHFFFAOYSA-N

> <PUBCHEM_XLOGP3>
10.1

> <PUBCHEM_EXACT_MASS>
418.308

> <PUBCHEM_MOLECULAR_FORMULA>
C26H42O4

> <PUBCHEM_MOLECULAR_WEIGHT>
418.618

> <PUBCHEM_OPENEYE_CAN_SMILES>
CCCCCCCCCCOC(=O)C1=CC=CC=C1C(=O)OCCCCCCCC

> <PUBCHEM_OPENEYE_ISO_SMILES>
CCCCCCCCCCOC(=O)C1=CC=CC=C1C(=O)OCCCCCCCC

> <PUBCHEM_CACTVS_TPSA>
52.6

> <PUBCHEM_MONOISOTOPIC_WEIGHT>
418.308

> <PUBCHEM_TOTAL_CHARGE>
0

> <PUBCHEM_HEAVY_ATOM_COUNT>
30

> <PUBCHEM_ATOM_DEF_STEREO_COUNT>
0

> <PUBCHEM_ATOM_UDEF_STEREO_COUNT>
0

> <PUBCHEM_BOND_DEF_STEREO_COUNT>
0

> <PUBCHEM_BOND_UDEF_STEREO_COUNT>
0

> <PUBCHEM_ISOTOPIC_ATOM_COUNT>
0

> <PUBCHEM_COMPONENT_COUNT>
1

> <PUBCHEM_CACTVS_TAUTO_COUNT>
-1

> <PUBCHEM_COORDINATE_TYPE>
1
5
255

> <PUBCHEM_BONDANNOTATIONS>
24  25  8
24  27  8
25  28  8
27  29  8
28  30  8
29  30  8

$$$$
243
  -OEChem-02061913062D

  9  9  0     0  0  0  0  0  0999 V2000
    3.7320    1.4400    0.0000 O   0  0  0  0  0  0  0  0  0  0  0  0
    2.0000    1.4400    0.0000 O   0  0  0  0  0  0  0  0  0  0  0  0
    2.8660   -0.0600    0.0000 C   0  0  0  0  0  0  0  0  0  0  0  0
    2.0000   -0.5600    0.0000 C   0  0  0  0  0  0  0  0  0  0  0  0
    3.7320   -0.5600    0.0000 C   0  0  0  0  0  0  0  0  0  0  0  0
    2.0000   -1.5600    0.0000 C   0  0  0  0  0  0  0  0  0  0  0  0
    3.7320   -1.5600    0.0000 C   0  0  0  0  0  0  0  0  0  0  0  0
    2.8660   -2.0600    0.0000 C   0  0  0  0  0  0  0  0  0  0  0  0
    2.8660    0.9400    0.0000 C   0  0  0  0  0  0  0  0  0  0  0  0
  1  9  1  0  0  0  0
  2  9  2  0  0  0  0
  3  4  2  0  0  0  0
  3  5  1  0  0  0  0
  3  9  1  0  0  0  0
  4  6  1  0  0  0  0
  5  7  2  0  0  0  0
  6  8  2  0  0  0  0
  7  8  1  0  0  0  0
M  END
> <PUBCHEM_COMPOUND_CID>
243

> <PUBCHEM_COMPOUND_CANONICALIZED>
1

> <PUBCHEM_CACTVS_COMPLEXITY>
104

> <PUBCHEM_CACTVS_HBOND_ACCEPTOR>
2

> <PUBCHEM_CACTVS_HBOND_DONOR>
1

> <PUBCHEM_CACTVS_ROTATABLE_BOND>
1

> <PUBCHEM_CACTVS_SUBSKEYS>
AAADcYBgMAAAAAAAAAAAAAAAAAAAAAAAAAAwAAAAAAAAAAABAAAAGgAACAAADACAmAAwCIAAAgCIAiDSCAACAAAkAAAIiAEACMgIJjKAFRCAcQAkwAEImYeIyCCOAAAAAAAAAAAAAAAAAAAAAAAAAAAAAA==

> <PUBCHEM_IUPAC_OPENEYE_NAME>
benzoic acid

> <PUBCHEM_IUPAC_CAS_NAME>
benzoic acid

> <PUBCHEM_IUPAC_NAME>
benzoic acid

> <PUBCHEM_IUPAC_SYSTEMATIC_NAME>
benzoic acid

> <PUBCHEM_IUPAC_TRADITIONAL_NAME>
benzoic acid

> <PUBCHEM_IUPAC_INCHI>
InChI=1S/C7H6O2/c8-7(9)6-4-2-1-3-5-6/h1-5H,(H,8,9)

> <PUBCHEM_IUPAC_INCHIKEY>
WPYMKLBDIGXBTP-UHFFFAOYSA-N

> <PUBCHEM_XLOGP3>
1.9

> <PUBCHEM_EXACT_MASS>
122.037

> <PUBCHEM_MOLECULAR_FORMULA>
C7H6O2

> <PUBCHEM_MOLECULAR_WEIGHT>
122.123

> <PUBCHEM_OPENEYE_CAN_SMILES>
C1=CC=C(C=C1)C(=O)O

> <PUBCHEM_OPENEYE_ISO_SMILES>
C1=CC=C(C=C1)C(=O)O

> <PUBCHEM_CACTVS_TPSA>
37.3

> <PUBCHEM_MONOISOTOPIC_WEIGHT>
122.037

> <PUBCHEM_TOTAL_CHARGE>
0

> <PUBCHEM_HEAVY_ATOM_COUNT>
9

> <PUBCHEM_ATOM_DEF_STEREO_COUNT>
0

> <PUBCHEM_ATOM_UDEF_STEREO_COUNT>
0

> <PUBCHEM_BOND_DEF_STEREO_COUNT>
0

> <PUBCHEM_BOND_UDEF_STEREO_COUNT>
0

> <PUBCHEM_ISOTOPIC_ATOM_COUNT>
0

> <PUBCHEM_COMPONENT_COUNT>
1

> <PUBCHEM_CACTVS_TAUTO_COUNT>
-1

> <PUBCHEM_COORDINATE_TYPE>
1
5
255

> <PUBCHEM_BONDANNOTATIONS>
3  4  8
3  5  8
4  6  8
5  7  8
6  8  8
7  8  8

$$$$
6432478
  -OEChem-02061913372D

 29 31  0     1  0  0  0  0  0999 V2000
    5.4641   -4.8465    0.0000 O   0  0  0  0  0  0  0  0  0  0  0  0
    5.4641    1.1535    0.0000 C   0  0  3  0  0  0  0  0  0  0  0  0
    6.4103    1.4582    0.0000 C   0  0  3  0  0  0  0  0  0  0  0  0
    5.4641    0.1535    0.0000 C   0  0  3  0  0  0  0  0  0  0  0  0
    6.9939    0.6535    0.0000 C   0  0  0  0  0  0  0  0  0  0  0  0
    6.4103   -0.1512    0.0000 C   0  0  0  0  0  0  0  0  0  0  0  0
    4.5981    1.6535    0.0000 C   0  0  0  0  0  0  0  0  0  0  0  0
    6.7210    2.4087    0.0000 C   0  0  3  0  0  0  0  0  0  0  0  0
    4.5981   -0.3465    0.0000 C   0  0  0  0  0  0  0  0  0  0  0  0
    5.4641    2.1535    0.0000 C   0  0  0  0  0  0  0  0  0  0  0  0
    3.7320    1.1535    0.0000 C   0  0  0  0  0  0  0  0  0  0  0  0
    3.7320    0.1535    0.0000 C   0  0  0  0  0  0  0  0  0  0  0  0
    6.0531    3.1530    0.0000 C   0  0  0  0  0  0  0  0  0  0  0  0
    7.6995    2.6150    0.0000 C   0  0  0  0  0  0  0  0  0  0  0  0
    4.5981   -1.3465    0.0000 C   0  0  0  0  0  0  0  0  0  0  0  0
    8.0102    3.5655    0.0000 C   0  0  0  0  0  0  0  0  0  0  0  0
    3.7320   -1.8465    0.0000 C   0  0  0  0  0  0  0  0  0  0  0  0
    8.9887    3.7717    0.0000 C   0  0  3  0  0  0  0  0  0  0  0  0
    3.7320   -2.8465    0.0000 C   0  0  0  0  0  0  0  0  0  0  0  0
    9.2993    4.7222    0.0000 C   0  0  0  0  0  0  0  0  0  0  0  0
    4.5981   -3.3465    0.0000 C   0  0  0  0  0  0  0  0  0  0  0  0
    9.6565    3.0274    0.0000 C   0  0  0  0  0  0  0  0  0  0  0  0
    2.8660   -3.3465    0.0000 C   0  0  0  0  0  0  0  0  0  0  0  0
    4.5981   -4.3465    0.0000 C   0  0  2  0  0  0  0  0  0  0  0  0
    2.8660   -4.3465    0.0000 C   0  0  0  0  0  0  0  0  0  0  0  0
    3.7320   -4.8465    0.0000 C   0  0  0  0  0  0  0  0  0  0  0  0
   10.2778    4.9284    0.0000 C   0  0  0  0  0  0  0  0  0  0  0  0
    8.6315    5.4665    0.0000 C   0  0  0  0  0  0  0  0  0  0  0  0
    2.0000   -2.8465    0.0000 C   0  0  0  0  0  0  0  0  0  0  0  0
 24  1  1  1  0  0  0
  2  3  1  0  0  0  0
  2  4  1  0  0  0  0
  2  7  1  0  0  0  0
  2 10  1  0  0  0  0
  3  5  1  0  0  0  0
  3  8  1  0  0  0  0
  4  6  1  0  0  0  0
  4  9  1  0  0  0  0
  5  6  1  0  0  0  0
  7 11  1  0  0  0  0
  8 13  1  0  0  0  0
  8 14  1  0  0  0  0
  9 12  1  0  0  0  0
  9 15  2  0  0  0  0
 11 12  1  0  0  0  0
 14 16  2  0  0  0  0
 15 17  1  0  0  0  0
 16 18  1  0  0  0  0
 17 19  2  0  0  0  0
 18 20  1  0  0  0  0
 18 22  1  0  0  0  0
 19 21  1  0  0  0  0
 19 23  1  0  0  0  0
 20 27  1  0  0  0  0
 20 28  1  0  0  0  0
 21 24  1  0  0  0  0
 23 25  1  0  0  0  0
 23 29  2  0  0  0  0
 24 26  1  0  0  0  0
 25 26  1  0  0  0  0
M  END
> <PUBCHEM_COMPOUND_CID>
6432478

> <PUBCHEM_COMPOUND_CANONICALIZED>
1

> <PUBCHEM_CACTVS_COMPLEXITY>
678

> <PUBCHEM_CACTVS_HBOND_ACCEPTOR>
1

> <PUBCHEM_CACTVS_HBOND_DONOR>
1

> <PUBCHEM_CACTVS_ROTATABLE_BOND>
5

> <PUBCHEM_CACTVS_SUBSKEYS>
AAADcfB4IAAAAAAAAAAAAAAAAAAAAYAAAAAwYAAAAAAAAGAAAAAAGgAACAAADxSggAICAAAAAgCAAiBCAAAAAAAgAAAICAAAAAgIEAIAAQAAQAAEwAAIgAOAwMAPgAAAAAAAAAAAAAAAACAAAQAACAAAAA==

> <PUBCHEM_IUPAC_OPENEYE_NAME>
(1~{S},3~{E})-3-[(2~{E})-2-[7~{a}-methyl-1-[(~{E})-1,4,5-trimethylhex-2-enyl]-2,3,3~{a},5,6,7-hexahydro-1~{H}-inden-4-ylidene]ethylidene]-4-methylene-cyclohexanol

> <PUBCHEM_IUPAC_CAS_NAME>
(1~{S},3~{E})-3-[(2~{E})-2-[1-[(~{E})-5,6-dimethylhept-3-en-2-yl]-7~{a}-methyl-2,3,3~{a},5,6,7-hexahydro-1~{H}-inden-4-ylidene]ethylidene]-4-methylene-1-cyclohexanol

> <PUBCHEM_IUPAC_NAME>
(1~{S},3~{E})-3-[(2~{E})-2-[1-[(~{E})-5,6-dimethylhept-3-en-2-yl]-7~{a}-methyl-2,3,3~{a},5,6,7-hexahydro-1~{H}-inden-4-ylidene]ethylidene]-4-methylidenecyclohexan-1-ol

> <PUBCHEM_IUPAC_SYSTEMATIC_NAME>
(1~{S},3~{E})-3-[(2~{E})-2-[1-[(~{E})-5,6-dimethylhept-3-en-2-yl]-7~{a}-methyl-2,3,3~{a},5,6,7-hexahydro-1~{H}-inden-4-ylidene]ethylidene]-4-methylidene-cyclohexan-1-ol

> <PUBCHEM_IUPAC_TRADITIONAL_NAME>
(1~{S},3~{E})-3-[(2~{E})-2-[7~{a}-methyl-1-[(~{E})-1,4,5-trimethylhex-2-enyl]-2,3,3~{a},5,6,7-hexahydro-1~{H}-inden-4-ylidene]ethylidene]-4-methylene-cyclohexanol

> <PUBCHEM_IUPAC_INCHI>
InChI=1S/C28H44O/c1-19(2)20(3)9-10-22(5)26-15-16-27-23(8-7-17-28(26,27)6)12-13-24-18-25(29)14-11-21(24)4/h9-10,12-13,19-20,22,25-27,29H,4,7-8,11,14-18H2,1-3,5-6H3/b10-9+,23-12+,24-13+/t20?,22?,25-,26?,27?,28?/m0/s1

> <PUBCHEM_IUPAC_INCHIKEY>
MECHNRXZTMCUDQ-MIQZZRNQSA-N

> <PUBCHEM_XLOGP3_AA>
7.4

> <PUBCHEM_EXACT_MASS>
396.339

> <PUBCHEM_MOLECULAR_FORMULA>
C28H44O

> <PUBCHEM_MOLECULAR_WEIGHT>
396.659

> <PUBCHEM_OPENEYE_CAN_SMILES>
CC(C)C(C)C=CC(C)C1CCC2C1(CCCC2=CC=C3CC(CCC3=C)O)C

> <PUBCHEM_OPENEYE_ISO_SMILES>
CC(C)C(C)/C=C/C(C)C1CCC\2C1(CCC/C2=C\C=C\3/C[C@H](CCC3=C)O)C

> <PUBCHEM_CACTVS_TPSA>
20.2

> <PUBCHEM_MONOISOTOPIC_WEIGHT>
396.339

> <PUBCHEM_TOTAL_CHARGE>
0

> <PUBCHEM_HEAVY_ATOM_COUNT>
29

> <PUBCHEM_ATOM_DEF_STEREO_COUNT>
1

> <PUBCHEM_ATOM_UDEF_STEREO_COUNT>
5

> <PUBCHEM_BOND_DEF_STEREO_COUNT>
3

> <PUBCHEM_BOND_UDEF_STEREO_COUNT>
0

> <PUBCHEM_ISOTOPIC_ATOM_COUNT>
0

> <PUBCHEM_COMPONENT_COUNT>
1

> <PUBCHEM_CACTVS_TAUTO_COUNT>
-1

> <PUBCHEM_COORDINATE_TYPE>
1
5
255

> <PUBCHEM_BONDANNOTATIONS>
24  1  5
18  22  3
2  10  3
3  5  3
4  6  3
8  13  3

$$$$
7410
  -OEChem-02061913072D

  9  9  0     0  0  0  0  0  0999 V2000
    2.0000    1.7500    0.0000 O   0  0  0  0  0  0  0  0  0  0  0  0
    2.8660    0.2500    0.0000 C   0  0  0  0  0  0  0  0  0  0  0  0
    2.0000   -0.2500    0.0000 C   0  0  0  0  0  0  0  0  0  0  0  0
    3.7320   -0.2500    0.0000 C   0  0  0  0  0  0  0  0  0  0  0  0
    2.8660    1.2500    0.0000 C   0  0  0  0  0  0  0  0  0  0  0  0
    2.0000   -1.2500    0.0000 C   0  0  0  0  0  0  0  0  0  0  0  0
    3.7320   -1.2500    0.0000 C   0  0  0  0  0  0  0  0  0  0  0  0
    2.8660   -1.7500    0.0000 C   0  0  0  0  0  0  0  0  0  0  0  0
    3.7320    1.7500    0.0000 C   0  0  0  0  0  0  0  0  0  0  0  0
  1  5  2  0  0  0  0
  2  3  2  0  0  0  0
  2  4  1  0  0  0  0
  2  5  1  0  0  0  0
  3  6  1  0  0  0  0
  4  7  2  0  0  0  0
  5  9  1  0  0  0  0
  6  8  2  0  0  0  0
  7  8  1  0  0  0  0
M  END
> <PUBCHEM_COMPOUND_CID>
7410

> <PUBCHEM_COMPOUND_CANONICALIZED>
1

> <PUBCHEM_CACTVS_COMPLEXITY>
101

> <PUBCHEM_CACTVS_HBOND_ACCEPTOR>
1

> <PUBCHEM_CACTVS_HBOND_DONOR>
0

> <PUBCHEM_CACTVS_ROTATABLE_BOND>
1

> <PUBCHEM_CACTVS_SUBSKEYS>
AAADccBwIAAAAAAAAAAAAAAAAAAAAAAAAAAwAAAAAAAAAAABAAAAGgAAAAAADASAmAAyAIAAAACIAqBSAAACAAAkAAAIiAEAAMgIIDKAFRCAIQAggAAIiYcIiICOAAAAAAAAAAAAAAAAAAAAAAAAAAAAAA==

> <PUBCHEM_IUPAC_OPENEYE_NAME>
1-phenylethanone

> <PUBCHEM_IUPAC_CAS_NAME>
1-phenylethanone

> <PUBCHEM_IUPAC_NAME>
1-phenylethanone

> <PUBCHEM_IUPAC_SYSTEMATIC_NAME>
1-phenylethanone

> <PUBCHEM_IUPAC_TRADITIONAL_NAME>
acetophenone

> <PUBCHEM_IUPAC_INCHI>
InChI=1S/C8H8O/c1-7(9)8-5-3-2-4-6-8/h2-6H,1H3

> <PUBCHEM_IUPAC_INCHIKEY>
KWOLFJPFCHCOCG-UHFFFAOYSA-N

> <PUBCHEM_XLOGP3>
1.6

> <PUBCHEM_EXACT_MASS>
120.058

> <PUBCHEM_MOLECULAR_FORMULA>
C8H8O

> <PUBCHEM_MOLECULAR_WEIGHT>
120.151

> <PUBCHEM_OPENEYE_CAN_SMILES>
CC(=O)C1=CC=CC=C1

> <PUBCHEM_OPENEYE_ISO_SMILES>
CC(=O)C1=CC=CC=C1

> <PUBCHEM_CACTVS_TPSA>
17.1

> <PUBCHEM_MONOISOTOPIC_WEIGHT>
120.058

> <PUBCHEM_TOTAL_CHARGE>
0

> <PUBCHEM_HEAVY_ATOM_COUNT>
9

> <PUBCHEM_ATOM_DEF_STEREO_COUNT>
0

> <PUBCHEM_ATOM_UDEF_STEREO_COUNT>
0

> <PUBCHEM_BOND_DEF_STEREO_COUNT>
0

> <PUBCHEM_BOND_UDEF_STEREO_COUNT>
0

> <PUBCHEM_ISOTOPIC_ATOM_COUNT>
0

> <PUBCHEM_COMPONENT_COUNT>
1

> <PUBCHEM_CACTVS_TAUTO_COUNT>
-1

> <PUBCHEM_COORDINATE_TYPE>
1
5
255

> <PUBCHEM_BONDANNOTATIONS>
2  3  8
2  4  8
3  6  8
4  7  8
6  8  8
7  8  8

$$$$
338
  -OEChem-02061913062D

 10 10  0     0  0  0  0  0  0999 V2000
    2.5369   -0.0600    0.0000 O   0  0  0  0  0  0  0  0  0  0  0  0
    5.1350    1.4400    0.0000 O   0  0  0  0  0  0  0  0  0  0  0  0
    3.4030    1.4400    0.0000 O   0  0  0  0  0  0  0  0  0  0  0  0
    4.2690   -0.0600    0.0000 C   0  0  0  0  0  0  0  0  0  0  0  0
    3.4030   -0.5600    0.0000 C   0  0  0  0  0  0  0  0  0  0  0  0
    5.1350   -0.5600    0.0000 C   0  0  0  0  0  0  0  0  0  0  0  0
    3.4030   -1.5600    0.0000 C   0  0  0  0  0  0  0  0  0  0  0  0
    5.1350   -1.5600    0.0000 C   0  0  0  0  0  0  0  0  0  0  0  0
    4.2690   -2.0600    0.0000 C   0  0  0  0  0  0  0  0  0  0  0  0
    4.2690    0.9400    0.0000 C   0  0  0  0  0  0  0  0  0  0  0  0
  1  5  1  0  0  0  0
  2 10  1  0  0  0  0
  3 10  2  0  0  0  0
  4  5  1  0  0  0  0
  4  6  2  0  0  0  0
  4 10  1  0  0  0  0
  5  7  2  0  0  0  0
  6  8  1  0  0  0  0
  7  9  1  0  0  0  0
  8  9  2  0  0  0  0
M  END
> <PUBCHEM_COMPOUND_CID>
338

> <PUBCHEM_COMPOUND_CANONICALIZED>
1

> <PUBCHEM_CACTVS_COMPLEXITY>
133

> <PUBCHEM_CACTVS_HBOND_ACCEPTOR>
3

> <PUBCHEM_CACTVS_HBOND_DONOR>
2

> <PUBCHEM_CACTVS_ROTATABLE_BOND>
1

> <PUBCHEM_CACTVS_SUBSKEYS>
AAADcYBgMAAAAAAAAAAAAAAAAAAAAAAAAAAwAAAAAAAAAAABAAAAGgAACAAADASAmAAwDoAAAgCIAiDSCAACAAAkIAAIiAEGCMgIJzaCFRKAcUAl4BEImYeIyCCOAAAAAAAIAAAAAAAAABAAAAAAAAAAAA==

> <PUBCHEM_IUPAC_OPENEYE_NAME>
2-hydroxybenzoic acid

> <PUBCHEM_IUPAC_CAS_NAME>
2-hydroxybenzoic acid

> <PUBCHEM_IUPAC_NAME>
2-hydroxybenzoic acid

> <PUBCHEM_IUPAC_SYSTEMATIC_NAME>
2-oxidanylbenzoic acid

> <PUBCHEM_IUPAC_TRADITIONAL_NAME>
salicylic acid

> <PUBCHEM_IUPAC_INCHI>
InChI=1S/C7H6O3/c8-6-4-2-1-3-5(6)7(9)10/h1-4,8H,(H,9,10)

> <PUBCHEM_IUPAC_INCHIKEY>
YGSDEFSMJLZEOE-UHFFFAOYSA-N

> <PUBCHEM_XLOGP3>
2.3

> <PUBCHEM_EXACT_MASS>
138.032

> <PUBCHEM_MOLECULAR_FORMULA>
C7H6O3

> <PUBCHEM_MOLECULAR_WEIGHT>
138.122

> <PUBCHEM_OPENEYE_CAN_SMILES>
C1=CC=C(C(=C1)C(=O)O)O

> <PUBCHEM_OPENEYE_ISO_SMILES>
C1=CC=C(C(=C1)C(=O)O)O

> <PUBCHEM_CACTVS_TPSA>
57.5

> <PUBCHEM_MONOISOTOPIC_WEIGHT>
138.032

> <PUBCHEM_TOTAL_CHARGE>
0

> <PUBCHEM_HEAVY_ATOM_COUNT>
10

> <PUBCHEM_ATOM_DEF_STEREO_COUNT>
0

> <PUBCHEM_ATOM_UDEF_STEREO_COUNT>
0

> <PUBCHEM_BOND_DEF_STEREO_COUNT>
0

> <PUBCHEM_BOND_UDEF_STEREO_COUNT>
0

> <PUBCHEM_ISOTOPIC_ATOM_COUNT>
0

> <PUBCHEM_COMPONENT_COUNT>
1

> <PUBCHEM_CACTVS_TAUTO_COUNT>
-1

> <PUBCHEM_COORDINATE_TYPE>
1
5
255

> <PUBCHEM_BONDANNOTATIONS>
4  5  8
4  6  8
5  7  8
6  8  8
7  9  8
8  9  8

$$$$
220520
  -OEChem-02061913062D

 29 35  0     1  0  0  0  0  0999 V2000
    7.6682   -2.1173    0.0000 O   0  0  0  0  0  0  0  0  0  0  0  0
    4.4011   -2.1552    0.0000 O   0  0  0  0  0  0  0  0  0  0  0  0
    2.0000    1.1552    0.0000 O   0  0  0  0  0  0  0  0  0  0  0  0
    2.0000   -0.7690    0.0000 O   0  0  0  0  0  0  0  0  0  0  0  0
    6.6757    2.0213    0.0000 N   0  0  3  0  0  0  0  0  0  0  0  0
    5.2671   -0.7310    0.0000 N   0  0  0  0  0  0  0  0  0  0  0  0
    6.0675    0.6552    0.0000 C   0  0  3  0  0  0  0  0  0  0  0  0
    6.0675   -0.2690    0.0000 C   0  0  3  0  0  0  0  0  0  0  0  0
    6.8678    1.1173    0.0000 C   0  0  3  0  0  0  0  0  0  0  0  0
    6.8678   -0.7310    0.0000 C   0  0  3  0  0  0  0  0  0  0  0  0
    7.6682   -0.2690    0.0000 C   0  0  3  0  0  0  0  0  0  0  0  0
    7.6682    0.6552    0.0000 C   0  0  0  0  0  0  0  0  0  0  0  0
    5.3807    1.2736    0.0000 C   0  0  0  0  0  0  0  0  0  0  0  0
    4.4668    0.6552    0.0000 C   0  0  0  0  0  0  0  0  0  0  0  0
    5.7566    2.1179    0.0000 C   0  0  0  0  0  0  0  0  0  0  0  0
    6.8678   -1.6552    0.0000 C   0  0  3  0  0  0  0  0  0  0  0  0
    8.5285   -0.6066    0.0000 C   0  0  0  0  0  0  0  0  0  0  0  0
    8.4927    1.2200    0.0000 C   0  0  0  0  0  0  0  0  0  0  0  0
    4.4668   -0.2690    0.0000 C   0  0  0  0  0  0  0  0  0  0  0  0
    6.0675   -2.1173    0.0000 C   0  0  0  0  0  0  0  0  0  0  0  0
    5.2671   -1.6552    0.0000 C   0  0  0  0  0  0  0  0  0  0  0  0
    3.6664    1.1173    0.0000 C   0  0  0  0  0  0  0  0  0  0  0  0
    8.8418   -1.2445    0.0000 C   0  0  0  0  0  0  0  0  0  0  0  0
    8.3900   -2.1070    0.0000 C   0  0  0  0  0  0  0  0  0  0  0  0
    3.6664   -0.7310    0.0000 C   0  0  0  0  0  0  0  0  0  0  0  0
    2.8660    0.6552    0.0000 C   0  0  0  0  0  0  0  0  0  0  0  0
    2.8660   -0.2690    0.0000 C   0  0  0  0  0  0  0  0  0  0  0  0
    2.0000    2.1552    0.0000 C   0  0  0  0  0  0  0  0  0  0  0  0
    2.0000   -1.7690    0.0000 C   0  0  0  0  0  0  0  0  0  0  0  0
  1 16  1  0  0  0  0
  1 24  1  0  0  0  0
  2 21  2  0  0  0  0
  3 26  1  0  0  0  0
  3 28  1  0  0  0  0
  4 27  1  0  0  0  0
  4 29  1  0  0  0  0
  5  9  1  0  0  0  0
  5 15  1  0  0  0  0
  5 18  1  0  0  0  0
  6  8  1  0  0  0  0
  6 19  1  0  0  0  0
  6 21  1  0  0  0  0
  7  8  1  0  0  0  0
  7  9  1  0  0  0  0
  7 13  1  0  0  0  0
  7 14  1  0  0  0  0
  8 10  1  0  0  0  0
  9 12  1  0  0  0  0
 10 11  1  0  0  0  0
 10 16  1  0  0  0  0
 11 12  1  0  0  0  0
 11 17  1  0  0  0  0
 13 15  1  0  0  0  0
 14 19  1  0  0  0  0
 14 22  2  0  0  0  0
 16 20  1  0  0  0  0
 17 18  1  0  0  0  0
 17 23  2  0  0  0  0
 19 25  2  0  0  0  0
 20 21  1  0  0  0  0
 22 26  1  0  0  0  0
 23 24  1  0  0  0  0
 25 27  1  0  0  0  0
 26 27  2  0  0  0  0
M  END
> <PUBCHEM_COMPOUND_CID>
220520

> <PUBCHEM_COMPOUND_CANONICALIZED>
1

> <PUBCHEM_CACTVS_COMPLEXITY>
785

> <PUBCHEM_CACTVS_HBOND_ACCEPTOR>
5

> <PUBCHEM_CACTVS_HBOND_DONOR>
0

> <PUBCHEM_CACTVS_ROTATABLE_BOND>
2

> <PUBCHEM_CACTVS_SUBSKEYS>
AAADceB7OAAAAAAAAAAAAAAAAAAAAWLAAAA8eIEABAAAAFgBAAAAHgAAAAAADzzhmAYyxoMABACIAiVSUACCCAAhIgAAiAEO7IgNJjbE8ZuGMCpm5hnK6Ae42fOfoEABAgACQADQgAaECCSAAAAAAAAAAA==

> <PUBCHEM_IUPAC_OPENEYE_NAME>
10,11-dimethoxy-4~{a},5,5~{a},7,8,13~{a},15,15~{a},15~{b},16-decahydro-2~{H}-4,6-methanoindolo[3,2,1-ij]oxepino[2,3,4-de]pyrrolo[2,3-h]quinolin-14-one

> <PUBCHEM_IUPAC_CAS_NAME>
10,11-dimethoxy-4~{a},5,5~{a},7,8,13~{a},15,15~{a},15~{b},16-decahydro-2~{H}-4,6-methanoindolo[3,2,1-ij]oxepino[2,3,4-de]pyrrolo[2,3-h]quinolin-14-one

> <PUBCHEM_IUPAC_NAME>
10,11-dimethoxy-4~{a},5,5~{a},7,8,13~{a},15,15~{a},15~{b},16-decahydro-2~{H}-4,6-methanoindolo[3,2,1-ij]oxepino[2,3,4-de]pyrrolo[2,3-h]quinolin-14-one

> <PUBCHEM_IUPAC_SYSTEMATIC_NAME>
10,11-dimethoxy-4~{a},5,5~{a},7,8,13~{a},15,15~{a},15~{b},16-decahydro-2~{H}-4,6-methanoindolo[3,2,1-ij]oxepino[2,3,4-de]pyrrolo[2,3-h]quinolin-14-one

> <PUBCHEM_IUPAC_TRADITIONAL_NAME>
10,11-dimethoxy-4~{a},5,5~{a},7,8,13~{a},15,15~{a},15~{b},16-decahydro-2~{H}-4,6-methanoindolo[3,2,1-ij]oxepino[2,3,4-de]pyrrolo[2,3-h]quinolin-14-one

> <PUBCHEM_IUPAC_INCHI>
InChI=1S/C23H26N2O4/c1-27-16-8-14-15(9-17(16)28-2)25-20(26)10-18-21-13-7-19-23(14,22(21)25)4-5-24(19)11-12(13)3-6-29-18/h3,8-9,13,18-19,21-22H,4-7,10-11H2,1-2H3

> <PUBCHEM_IUPAC_INCHIKEY>
RRKTZKIUPZVBMF-UHFFFAOYSA-N

> <PUBCHEM_XLOGP3>
1

> <PUBCHEM_EXACT_MASS>
394.189

> <PUBCHEM_MOLECULAR_FORMULA>
C23H26N2O4

> <PUBCHEM_MOLECULAR_WEIGHT>
394.471

> <PUBCHEM_OPENEYE_CAN_SMILES>
COC1=C(C=C2C(=C1)C34CCN5C3CC6C7C4N2C(=O)CC7OCC=C6C5)OC

> <PUBCHEM_OPENEYE_ISO_SMILES>
COC1=C(C=C2C(=C1)C34CCN5C3CC6C7C4N2C(=O)CC7OCC=C6C5)OC

> <PUBCHEM_CACTVS_TPSA>
51.2

> <PUBCHEM_MONOISOTOPIC_WEIGHT>
394.189

> <PUBCHEM_TOTAL_CHARGE>
0

> <PUBCHEM_HEAVY_ATOM_COUNT>
29

> <PUBCHEM_ATOM_DEF_STEREO_COUNT>
0

> <PUBCHEM_ATOM_UDEF_STEREO_COUNT>
6

> <PUBCHEM_BOND_DEF_STEREO_COUNT>
0

> <PUBCHEM_BOND_UDEF_STEREO_COUNT>
0

> <PUBCHEM_ISOTOPIC_ATOM_COUNT>
0

> <PUBCHEM_COMPONENT_COUNT>
1

> <PUBCHEM_CACTVS_TAUTO_COUNT>
-1

> <PUBCHEM_COORDINATE_TYPE>
1
5
255

> <PUBCHEM_BONDANNOTATIONS>
10  11  3
11  12  3
14  19  8
14  22  8
16  20  3
19  25  8
22  26  8
25  27  8
26  27  8
8  6  3
7  13  3
9  12  3

$$$$
6877
  -OEChem-02061913072D

 12 12  0     0  0  0  0  0  0999 V2000
    5.1350    1.0000    0.0000 O   0  0  0  0  0  0  0  0  0  0  0  0
    3.4030    1.0000    0.0000 O   0  0  0  0  0  0  0  0  0  0  0  0
    2.5369   -0.5000    0.0000 N   0  0  0  0  0  0  0  0  0  0  0  0
    4.2690   -0.5000    0.0000 C   0  0  0  0  0  0  0  0  0  0  0  0
    3.4030   -1.0000    0.0000 C   0  0  0  0  0  0  0  0  0  0  0  0
    5.1350   -1.0000    0.0000 C   0  0  0  0  0  0  0  0  0  0  0  0
    3.4030   -2.0000    0.0000 C   0  0  0  0  0  0  0  0  0  0  0  0
    4.2690    0.5000    0.0000 C   0  0  0  0  0  0  0  0  0  0  0  0
    5.1350   -2.0000    0.0000 C   0  0  0  0  0  0  0  0  0  0  0  0
    5.1350    2.0000    0.0000 C   0  0  0  0  0  0  0  0  0  0  0  0
    4.2690   -2.5000    0.0000 C   0  0  0  0  0  0  0  0  0  0  0  0
    6.0010    2.5000    0.0000 C   0  0  0  0  0  0  0  0  0  0  0  0
  1  8  1  0  0  0  0
  1 10  1  0  0  0  0
  2  8  2  0  0  0  0
  3  5  1  0  0  0  0
  4  5  1  0  0  0  0
  4  6  2  0  0  0  0
  4  8  1  0  0  0  0
  5  7  2  0  0  0  0
  6  9  1  0  0  0  0
  7 11  1  0  0  0  0
  9 11  2  0  0  0  0
 10 12  1  0  0  0  0
M  END
> <PUBCHEM_COMPOUND_CID>
6877

> <PUBCHEM_COMPOUND_CANONICALIZED>
1

> <PUBCHEM_CACTVS_COMPLEXITY>
159

> <PUBCHEM_CACTVS_HBOND_ACCEPTOR>
3

> <PUBCHEM_CACTVS_HBOND_DONOR>
1

> <PUBCHEM_CACTVS_ROTATABLE_BOND>
3

> <PUBCHEM_CACTVS_SUBSKEYS>
AAADccByMAAAAAAAAAAAAAAAAAAAAAAAAAAwAAAAAAAAAAABAAAAHgAQAAAADAihmAIyyIBABACIAiTSSACCAAAkAgAIiAEAbMgIJjqAtZmCMYBm0AEI6ceYyCCOAAAAAAACAAAAAAAAAAQAAAAAAAAAAA==

> <PUBCHEM_IUPAC_OPENEYE_NAME>
ethyl 2-aminobenzoate

> <PUBCHEM_IUPAC_CAS_NAME>
2-aminobenzoic acid ethyl ester

> <PUBCHEM_IUPAC_NAME>
ethyl 2-aminobenzoate

> <PUBCHEM_IUPAC_SYSTEMATIC_NAME>
ethyl 2-azanylbenzoate

> <PUBCHEM_IUPAC_TRADITIONAL_NAME>
2-aminobenzoic acid ethyl ester

> <PUBCHEM_IUPAC_INCHI>
InChI=1S/C9H11NO2/c1-2-12-9(11)7-5-3-4-6-8(7)10/h3-6H,2,10H2,1H3

> <PUBCHEM_IUPAC_INCHIKEY>
TWLLPUMZVVGILS-UHFFFAOYSA-N

> <PUBCHEM_XLOGP3>
2.6

> <PUBCHEM_EXACT_MASS>
165.079

> <PUBCHEM_MOLECULAR_FORMULA>
C9H11NO2

> <PUBCHEM_MOLECULAR_WEIGHT>
165.192

> <PUBCHEM_OPENEYE_CAN_SMILES>
CCOC(=O)C1=CC=CC=C1N

> <PUBCHEM_OPENEYE_ISO_SMILES>
CCOC(=O)C1=CC=CC=C1N

> <PUBCHEM_CACTVS_TPSA>
52.3

> <PUBCHEM_MONOISOTOPIC_WEIGHT>
165.079

> <PUBCHEM_TOTAL_CHARGE>
0

> <PUBCHEM_HEAVY_ATOM_COUNT>
12

> <PUBCHEM_ATOM_DEF_STEREO_COUNT>
0

> <PUBCHEM_ATOM_UDEF_STEREO_COUNT>
0

> <PUBCHEM_BOND_DEF_STEREO_COUNT>
0

> <PUBCHEM_BOND_UDEF_STEREO_COUNT>
0

> <PUBCHEM_ISOTOPIC_ATOM_COUNT>
0

> <PUBCHEM_COMPONENT_COUNT>
1

> <PUBCHEM_CACTVS_TAUTO_COUNT>
-1

> <PUBCHEM_COORDINATE_TYPE>
1
5
255

> <PUBCHEM_BONDANNOTATIONS>
4  5  8
4  6  8
5  7  8
6  9  8
7  11  8
9  11  8

$$$$
5353610
  -OEChem-02061913342D

 29 31  0     1  0  0  0  0  0999 V2000
    5.4641   -4.8465    0.0000 O   0  0  0  0  0  0  0  0  0  0  0  0
    5.4641    1.1535    0.0000 C   0  0  3  0  0  0  0  0  0  0  0  0
    6.4103    1.4582    0.0000 C   0  0  3  0  0  0  0  0  0  0  0  0
    5.4641    0.1535    0.0000 C   0  0  3  0  0  0  0  0  0  0  0  0
    6.9939    0.6535    0.0000 C   0  0  0  0  0  0  0  0  0  0  0  0
    6.4103   -0.1512    0.0000 C   0  0  0  0  0  0  0  0  0  0  0  0
    4.5981    1.6535    0.0000 C   0  0  0  0  0  0  0  0  0  0  0  0
    6.7210    2.4087    0.0000 C   0  0  3  0  0  0  0  0  0  0  0  0
    4.5981   -0.3465    0.0000 C   0  0  0  0  0  0  0  0  0  0  0  0
    5.4641    2.1535    0.0000 C   0  0  0  0  0  0  0  0  0  0  0  0
    3.7320    1.1535    0.0000 C   0  0  0  0  0  0  0  0  0  0  0  0
    3.7320    0.1535    0.0000 C   0  0  0  0  0  0  0  0  0  0  0  0
    6.0531    3.1530    0.0000 C   0  0  0  0  0  0  0  0  0  0  0  0
    7.6995    2.6150    0.0000 C   0  0  0  0  0  0  0  0  0  0  0  0
    4.5981   -1.3465    0.0000 C   0  0  0  0  0  0  0  0  0  0  0  0
    8.0102    3.5655    0.0000 C   0  0  0  0  0  0  0  0  0  0  0  0
    3.7320   -1.8465    0.0000 C   0  0  0  0  0  0  0  0  0  0  0  0
    8.9887    3.7717    0.0000 C   0  0  3  0  0  0  0  0  0  0  0  0
    3.7320   -2.8465    0.0000 C   0  0  0  0  0  0  0  0  0  0  0  0
    9.2993    4.7222    0.0000 C   0  0  0  0  0  0  0  0  0  0  0  0
    4.5981   -3.3465    0.0000 C   0  0  0  0  0  0  0  0  0  0  0  0
    9.6565    3.0274    0.0000 C   0  0  0  0  0  0  0  0  0  0  0  0
    2.8660   -3.3465    0.0000 C   0  0  0  0  0  0  0  0  0  0  0  0
    4.5981   -4.3465    0.0000 C   0  0  3  0  0  0  0  0  0  0  0  0
    2.8660   -4.3465    0.0000 C   0  0  0  0  0  0  0  0  0  0  0  0
    3.7320   -4.8465    0.0000 C   0  0  0  0  0  0  0  0  0  0  0  0
   10.2778    4.9284    0.0000 C   0  0  0  0  0  0  0  0  0  0  0  0
    8.6315    5.4665    0.0000 C   0  0  0  0  0  0  0  0  0  0  0  0
    2.0000   -2.8465    0.0000 C   0  0  0  0  0  0  0  0  0  0  0  0
  1 24  1  0  0  0  0
  2  3  1  0  0  0  0
  2  4  1  0  0  0  0
  2  7  1  0  0  0  0
  2 10  1  0  0  0  0
  3  5  1  0  0  0  0
  3  8  1  0  0  0  0
  4  6  1  0  0  0  0
  4  9  1  0  0  0  0
  5  6  1  0  0  0  0
  7 11  1  0  0  0  0
  8 13  1  0  0  0  0
  8 14  1  0  0  0  0
  9 12  1  0  0  0  0
  9 15  2  0  0  0  0
 11 12  1  0  0  0  0
 14 16  2  0  0  0  0
 15 17  1  0  0  0  0
 16 18  1  0  0  0  0
 17 19  2  0  0  0  0
 18 20  1  0  0  0  0
 18 22  1  0  0  0  0
 19 21  1  0  0  0  0
 19 23  1  0  0  0  0
 20 27  1  0  0  0  0
 20 28  1  0  0  0  0
 21 24  1  0  0  0  0
 23 25  1  0  0  0  0
 23 29  2  0  0  0  0
 24 26  1  0  0  0  0
 25 26  1  0  0  0  0
M  END
> <PUBCHEM_COMPOUND_CID>
5353610

> <PUBCHEM_COMPOUND_CANONICALIZED>
1

> <PUBCHEM_CACTVS_COMPLEXITY>
678

> <PUBCHEM_CACTVS_HBOND_ACCEPTOR>
1

> <PUBCHEM_CACTVS_HBOND_DONOR>
1

> <PUBCHEM_CACTVS_ROTATABLE_BOND>
5

> <PUBCHEM_CACTVS_SUBSKEYS>
AAADcfB4IAAAAAAAAAAAAAAAAAAAAYAAAAAwYAAAAAAAAGAAAAAAGgAACAAADxSggAICAAAAAgCAAiBCAAAAAAAgAAAICAAAAAgIEAIAAQAAQAAEwAAIgAOAwMAPgAAAAAAAAAAAAAAAACAAAQAACAAAAA==

> <PUBCHEM_IUPAC_OPENEYE_NAME>
(3~{E})-3-[(2~{E})-2-[7~{a}-methyl-1-[(~{E})-1,4,5-trimethylhex-2-enyl]-2,3,3~{a},5,6,7-hexahydro-1~{H}-inden-4-ylidene]ethylidene]-4-methylene-cyclohexanol

> <PUBCHEM_IUPAC_CAS_NAME>
(3~{E})-3-[(2~{E})-2-[1-[(~{E})-5,6-dimethylhept-3-en-2-yl]-7~{a}-methyl-2,3,3~{a},5,6,7-hexahydro-1~{H}-inden-4-ylidene]ethylidene]-4-methylene-1-cyclohexanol

> <PUBCHEM_IUPAC_NAME>
(3~{E})-3-[(2~{E})-2-[1-[(~{E})-5,6-dimethylhept-3-en-2-yl]-7~{a}-methyl-2,3,3~{a},5,6,7-hexahydro-1~{H}-inden-4-ylidene]ethylidene]-4-methylidenecyclohexan-1-ol

> <PUBCHEM_IUPAC_SYSTEMATIC_NAME>
(3~{E})-3-[(2~{E})-2-[1-[(~{E})-5,6-dimethylhept-3-en-2-yl]-7~{a}-methyl-2,3,3~{a},5,6,7-hexahydro-1~{H}-inden-4-ylidene]ethylidene]-4-methylidene-cyclohexan-1-ol

> <PUBCHEM_IUPAC_TRADITIONAL_NAME>
(3~{E})-3-[(2~{E})-2-[7~{a}-methyl-1-[(~{E})-1,4,5-trimethylhex-2-enyl]-2,3,3~{a},5,6,7-hexahydro-1~{H}-inden-4-ylidene]ethylidene]-4-methylene-cyclohexanol

> <PUBCHEM_IUPAC_INCHI>
InChI=1S/C28H44O/c1-19(2)20(3)9-10-22(5)26-15-16-27-23(8-7-17-28(26,27)6)12-13-24-18-25(29)14-11-21(24)4/h9-10,12-13,19-20,22,25-27,29H,4,7-8,11,14-18H2,1-3,5-6H3/b10-9+,23-12+,24-13+

> <PUBCHEM_IUPAC_INCHIKEY>
MECHNRXZTMCUDQ-ZJGOHBTISA-N

> <PUBCHEM_XLOGP3_AA>
7.4

> <PUBCHEM_EXACT_MASS>
396.339

> <PUBCHEM_MOLECULAR_FORMULA>
C28H44O

> <PUBCHEM_MOLECULAR_WEIGHT>
396.659

> <PUBCHEM_OPENEYE_CAN_SMILES>
CC(C)C(C)C=CC(C)C1CCC2C1(CCCC2=CC=C3CC(CCC3=C)O)C

> <PUBCHEM_OPENEYE_ISO_SMILES>
CC(C)C(C)/C=C/C(C)C1CCC\2C1(CCC/C2=C\C=C\3/CC(CCC3=C)O)C

> <PUBCHEM_CACTVS_TPSA>
20.2

> <PUBCHEM_MONOISOTOPIC_WEIGHT>
396.339

> <PUBCHEM_TOTAL_CHARGE>
0

> <PUBCHEM_HEAVY_ATOM_COUNT>
29

> <PUBCHEM_ATOM_DEF_STEREO_COUNT>
0

> <PUBCHEM_ATOM_UDEF_STEREO_COUNT>
6

> <PUBCHEM_BOND_DEF_STEREO_COUNT>
3

> <PUBCHEM_BOND_UDEF_STEREO_COUNT>
0

> <PUBCHEM_ISOTOPIC_ATOM_COUNT>
0

> <PUBCHEM_COMPONENT_COUNT>
1

> <PUBCHEM_CACTVS_TAUTO_COUNT>
-1

> <PUBCHEM_COORDINATE_TYPE>
1
5
255

> <PUBCHEM_BONDANNOTATIONS>
24  1  3
18  22  3
2  10  3
3  5  3
4  9  3
8  13  3

$$$$
16129778
  -OEChem-02061913552D

122132  0     1  0  0  0  0  0999 V2000
   12.9292    1.0000    0.0000 O   0  0  0  0  0  0  0  0  0  0  0  0
   12.9292   -2.0000    0.0000 O   0  0  0  0  0  0  0  0  0  0  0  0
   11.1972   -1.0000    0.0000 O   0  0  0  0  0  0  0  0  0  0  0  0
   14.6613   -1.0000    0.0000 O   0  0  0  0  0  0  0  0  0  0  0  0
   14.6613    1.0000    0.0000 O   0  0  0  0  0  0  0  0  0  0  0  0
   11.1972    2.0000    0.0000 O   0  0  0  0  0  0  0  0  0  0  0  0
   11.1972   -2.0000    0.0000 O   0  0  0  0  0  0  0  0  0  0  0  0
   10.3312    0.5000    0.0000 O   0  0  0  0  0  0  0  0  0  0  0  0
   15.5273    0.5000    0.0000 O   0  0  0  0  0  0  0  0  0  0  0  0
   13.7953    2.5000    0.0000 O   0  0  0  0  0  0  0  0  0  0  0  0
    9.4651    2.0000    0.0000 O   0  0  0  0  0  0  0  0  0  0  0  0
   10.3312   -5.5000    0.0000 O   0  0  0  0  0  0  0  0  0  0  0  0
    6.8671   -0.5000    0.0000 O   0  0  0  0  0  0  0  0  0  0  0  0
   17.2594   -3.5000    0.0000 O   0  0  0  0  0  0  0  0  0  0  0  0
   13.7953   -5.5000    0.0000 O   0  0  0  0  0  0  0  0  0  0  0  0
    8.5991   -3.5000    0.0000 O   0  0  0  0  0  0  0  0  0  0  0  0
   18.9914   -0.5000    0.0000 O   0  0  0  0  0  0  0  0  0  0  0  0
   18.1254    2.0000    0.0000 O   0  0  0  0  0  0  0  0  0  0  0  0
   12.0632   -6.5000    0.0000 O   0  0  0  0  0  0  0  0  0  0  0  0
    6.8671   -2.5000    0.0000 O   0  0  0  0  0  0  0  0  0  0  0  0
   16.3933    5.0000    0.0000 O   0  0  0  0  0  0  0  0  0  0  0  0
   18.9914   -2.5000    0.0000 O   0  0  0  0  0  0  0  0  0  0  0  0
   18.1254    4.0000    0.0000 O   0  0  0  0  0  0  0  0  0  0  0  0
   12.0632    5.5000    0.0000 O   0  0  0  0  0  0  0  0  0  0  0  0
    8.5991    5.5000    0.0000 O   0  0  0  0  0  0  0  0  0  0  0  0
   10.3312    6.5000    0.0000 O   0  0  0  0  0  0  0  0  0  0  0  0
   11.1972   -7.0000    0.0000 O   0  0  0  0  0  0  0  0  0  0  0  0
    6.0010   -2.0000    0.0000 O   0  0  0  0  0  0  0  0  0  0  0  0
   18.9914   -3.5000    0.0000 O   0  0  0  0  0  0  0  0  0  0  0  0
   18.9914    3.5000    0.0000 O   0  0  0  0  0  0  0  0  0  0  0  0
   11.1972    7.0000    0.0000 O   0  0  0  0  0  0  0  0  0  0  0  0
    8.5991   -9.5000    0.0000 O   0  0  0  0  0  0  0  0  0  0  0  0
    6.8671   -6.5000    0.0000 O   0  0  0  0  0  0  0  0  0  0  0  0
    2.5369   -1.0000    0.0000 O   0  0  0  0  0  0  0  0  0  0  0  0
    4.2690    2.0000    0.0000 O   0  0  0  0  0  0  0  0  0  0  0  0
   19.8574   -7.0000    0.0000 O   0  0  0  0  0  0  0  0  0  0  0  0
   16.3933   -7.0000    0.0000 O   0  0  0  0  0  0  0  0  0  0  0  0
    6.8671   -8.5000    0.0000 O   0  0  0  0  0  0  0  0  0  0  0  0
    2.5369    1.0000    0.0000 O   0  0  0  0  0  0  0  0  0  0  0  0
   22.4555    2.5000    0.0000 O   0  0  0  0  0  0  0  0  0  0  0  0
   20.7235   -0.5000    0.0000 O   0  0  0  0  0  0  0  0  0  0  0  0
   18.1254   -8.0000    0.0000 O   0  0  0  0  0  0  0  0  0  0  0  0
   22.4555    0.5000    0.0000 O   0  0  0  0  0  0  0  0  0  0  0  0
   13.7953    9.5000    0.0000 O   0  0  0  0  0  0  0  0  0  0  0  0
   15.5273    6.5000    0.0000 O   0  0  0  0  0  0  0  0  0  0  0  0
   15.5273    8.5000    0.0000 O   0  0  0  0  0  0  0  0  0  0  0  0
   12.9292   -1.0000    0.0000 C   0  0  1  0  0  0  0  0  0  0  0  0
   12.0632   -0.5000    0.0000 C   0  0  1  0  0  0  0  0  0  0  0  0
   13.7953   -0.5000    0.0000 C   0  0  2  0  0  0  0  0  0  0  0  0
   12.0632    0.5000    0.0000 C   0  0  1  0  0  0  0  0  0  0  0  0
   13.7953    0.5000    0.0000 C   0  0  1  0  0  0  0  0  0  0  0  0
   11.1972    1.0000    0.0000 C   0  0  0  0  0  0  0  0  0  0  0  0
   12.0632   -2.5000    0.0000 C   0  0  0  0  0  0  0  0  0  0  0  0
   10.3312   -0.5000    0.0000 C   0  0  0  0  0  0  0  0  0  0  0  0
   15.5273   -0.5000    0.0000 C   0  0  0  0  0  0  0  0  0  0  0  0
   14.6613    2.0000    0.0000 C   0  0  0  0  0  0  0  0  0  0  0  0
   12.0632   -3.5000    0.0000 C   0  0  0  0  0  0  0  0  0  0  0  0
    9.4651   -1.0000    0.0000 C   0  0  0  0  0  0  0  0  0  0  0  0
   16.3933   -1.0000    0.0000 C   0  0  0  0  0  0  0  0  0  0  0  0
   10.3312    2.5000    0.0000 C   0  0  0  0  0  0  0  0  0  0  0  0
   15.5273    2.5000    0.0000 C   0  0  0  0  0  0  0  0  0  0  0  0
   10.3312    3.5000    0.0000 C   0  0  0  0  0  0  0  0  0  0  0  0
   11.1972   -4.0000    0.0000 C   0  0  0  0  0  0  0  0  0  0  0  0
    8.5991   -0.5000    0.0000 C   0  0  0  0  0  0  0  0  0  0  0  0
   12.9292   -4.0000    0.0000 C   0  0  0  0  0  0  0  0  0  0  0  0
    9.4651   -2.0000    0.0000 C   0  0  0  0  0  0  0  0  0  0  0  0
   16.3933   -2.0000    0.0000 C   0  0  0  0  0  0  0  0  0  0  0  0
   17.2594   -0.5000    0.0000 C   0  0  0  0  0  0  0  0  0  0  0  0
   16.3933    2.0000    0.0000 C   0  0  0  0  0  0  0  0  0  0  0  0
   15.5273    3.5000    0.0000 C   0  0  0  0  0  0  0  0  0  0  0  0
   11.1972   -5.0000    0.0000 C   0  0  0  0  0  0  0  0  0  0  0  0
    7.7331   -1.0000    0.0000 C   0  0  0  0  0  0  0  0  0  0  0  0
   12.9292   -5.0000    0.0000 C   0  0  0  0  0  0  0  0  0  0  0  0
    8.5991   -2.5000    0.0000 C   0  0  0  0  0  0  0  0  0  0  0  0
   17.2594   -2.5000    0.0000 C   0  0  0  0  0  0  0  0  0  0  0  0
   18.1254   -1.0000    0.0000 C   0  0  0  0  0  0  0  0  0  0  0  0
   11.1972    4.0000    0.0000 C   0  0  0  0  0  0  0  0  0  0  0  0
    9.4651    4.0000    0.0000 C   0  0  0  0  0  0  0  0  0  0  0  0
   12.0632   -5.5000    0.0000 C   0  0  0  0  0  0  0  0  0  0  0  0
    7.7331   -2.0000    0.0000 C   0  0  0  0  0  0  0  0  0  0  0  0
   17.2594    2.5000    0.0000 C   0  0  0  0  0  0  0  0  0  0  0  0
   16.3933    4.0000    0.0000 C   0  0  0  0  0  0  0  0  0  0  0  0
   18.1254   -2.0000    0.0000 C   0  0  0  0  0  0  0  0  0  0  0  0
   17.2594    3.5000    0.0000 C   0  0  0  0  0  0  0  0  0  0  0  0
   11.1972    5.0000    0.0000 C   0  0  0  0  0  0  0  0  0  0  0  0
    9.4651    5.0000    0.0000 C   0  0  0  0  0  0  0  0  0  0  0  0
   10.3312    5.5000    0.0000 C   0  0  0  0  0  0  0  0  0  0  0  0
   10.3312   -6.5000    0.0000 C   0  0  0  0  0  0  0  0  0  0  0  0
    6.0010   -1.0000    0.0000 C   0  0  0  0  0  0  0  0  0  0  0  0
   18.1254   -4.0000    0.0000 C   0  0  0  0  0  0  0  0  0  0  0  0
   18.9914    2.5000    0.0000 C   0  0  0  0  0  0  0  0  0  0  0  0
    9.4651   -7.0000    0.0000 C   0  0  0  0  0  0  0  0  0  0  0  0
    5.1350   -0.5000    0.0000 C   0  0  0  0  0  0  0  0  0  0  0  0
   12.0632    6.5000    0.0000 C   0  0  0  0  0  0  0  0  0  0  0  0
   18.1254   -5.0000    0.0000 C   0  0  0  0  0  0  0  0  0  0  0  0
   19.8574    2.0000    0.0000 C   0  0  0  0  0  0  0  0  0  0  0  0
   12.9292    7.0000    0.0000 C   0  0  0  0  0  0  0  0  0  0  0  0
    8.5991   -6.5000    0.0000 C   0  0  0  0  0  0  0  0  0  0  0  0
    9.4651   -8.0000    0.0000 C   0  0  0  0  0  0  0  0  0  0  0  0
    5.1350    0.5000    0.0000 C   0  0  0  0  0  0  0  0  0  0  0  0
    4.2690   -1.0000    0.0000 C   0  0  0  0  0  0  0  0  0  0  0  0
   17.2594   -5.5000    0.0000 C   0  0  0  0  0  0  0  0  0  0  0  0
   18.9914   -5.5000    0.0000 C   0  0  0  0  0  0  0  0  0  0  0  0
   19.8574    1.0000    0.0000 C   0  0  0  0  0  0  0  0  0  0  0  0
   20.7235    2.5000    0.0000 C   0  0  0  0  0  0  0  0  0  0  0  0
    8.5991   -8.5000    0.0000 C   0  0  0  0  0  0  0  0  0  0  0  0
    7.7331   -7.0000    0.0000 C   0  0  0  0  0  0  0  0  0  0  0  0
    3.4030   -0.5000    0.0000 C   0  0  0  0  0  0  0  0  0  0  0  0
    4.2690    1.0000    0.0000 C   0  0  0  0  0  0  0  0  0  0  0  0
   18.9914   -6.5000    0.0000 C   0  0  0  0  0  0  0  0  0  0  0  0
   17.2594   -6.5000    0.0000 C   0  0  0  0  0  0  0  0  0  0  0  0
   13.7953    6.5000    0.0000 C   0  0  0  0  0  0  0  0  0  0  0  0
   12.9292    8.0000    0.0000 C   0  0  0  0  0  0  0  0  0  0  0  0
    7.7331   -8.0000    0.0000 C   0  0  0  0  0  0  0  0  0  0  0  0
    3.4030    0.5000    0.0000 C   0  0  0  0  0  0  0  0  0  0  0  0
   21.5895    2.0000    0.0000 C   0  0  0  0  0  0  0  0  0  0  0  0
   20.7235    0.5000    0.0000 C   0  0  0  0  0  0  0  0  0  0  0  0
   18.1254   -7.0000    0.0000 C   0  0  0  0  0  0  0  0  0  0  0  0
   21.5895    1.0000    0.0000 C   0  0  0  0  0  0  0  0  0  0  0  0
   13.7953    8.5000    0.0000 C   0  0  0  0  0  0  0  0  0  0  0  0
   14.6613    7.0000    0.0000 C   0  0  0  0  0  0  0  0  0  0  0  0
   14.6613    8.0000    0.0000 C   0  0  0  0  0  0  0  0  0  0  0  0
  1 50  1  0  0  0  0
  1 51  1  0  0  0  0
 47  2  1  1  0  0  0
  2 53  1  0  0  0  0
 48  3  1  6  0  0  0
  3 54  1  0  0  0  0
 49  4  1  6  0  0  0
  4 55  1  0  0  0  0
 51  5  1  1  0  0  0
  5 56  1  0  0  0  0
  6 52  1  0  0  0  0
  6 60  1  0  0  0  0
  7 53  2  0  0  0  0
  8 54  2  0  0  0  0
  9 55  2  0  0  0  0
 10 56  2  0  0  0  0
 11 60  2  0  0  0  0
 12 71  1  0  0  0  0
 12 88  1  0  0  0  0
 13 72  1  0  0  0  0
 13 89  1  0  0  0  0
 14 75  1  0  0  0  0
 14 90  1  0  0  0  0
 15 73  1  0  0  0  0
 16 74  1  0  0  0  0
 17 76  1  0  0  0  0
 18 81  1  0  0  0  0
 18 91  1  0  0  0  0
 19 79  1  0  0  0  0
 20 80  1  0  0  0  0
 21 82  1  0  0  0  0
 22 83  1  0  0  0  0
 23 84  1  0  0  0  0
 24 85  1  0  0  0  0
 24 94  1  0  0  0  0
 25 86  1  0  0  0  0
 26 87  1  0  0  0  0
 27 88  2  0  0  0  0
 28 89  2  0  0  0  0
 29 90  2  0  0  0  0
 30 91  2  0  0  0  0
 31 94  2  0  0  0  0
 32106  1  0  0  0  0
 33107  1  0  0  0  0
 34108  1  0  0  0  0
 35109  1  0  0  0  0
 36110  1  0  0  0  0
 37111  1  0  0  0  0
 38114  1  0  0  0  0
 39115  1  0  0  0  0
 40116  1  0  0  0  0
 41117  1  0  0  0  0
 42118  1  0  0  0  0
 43119  1  0  0  0  0
 44120  1  0  0  0  0
 45121  1  0  0  0  0
 46122  1  0  0  0  0
 47 48  1  0  0  0  0
 47 49  1  0  0  0  0
 48 50  1  0  0  0  0
 49 51  1  0  0  0  0
 50 52  1  1  0  0  0
 53 57  1  0  0  0  0
 54 58  1  0  0  0  0
 55 59  1  0  0  0  0
 56 61  1  0  0  0  0
 57 63  1  0  0  0  0
 57 65  2  0  0  0  0
 58 64  1  0  0  0  0
 58 66  2  0  0  0  0
 59 67  1  0  0  0  0
 59 68  2  0  0  0  0
 60 62  1  0  0  0  0
 61 69  1  0  0  0  0
 61 70  2  0  0  0  0
 62 77  1  0  0  0  0
 62 78  2  0  0  0  0
 63 71  2  0  0  0  0
 64 72  2  0  0  0  0
 65 73  1  0  0  0  0
 66 74  1  0  0  0  0
 67 75  2  0  0  0  0
 68 76  1  0  0  0  0
 69 81  2  0  0  0  0
 70 82  1  0  0  0  0
 71 79  1  0  0  0  0
 72 80  1  0  0  0  0
 73 79  2  0  0  0  0
 74 80  2  0  0  0  0
 75 83  1  0  0  0  0
 76 83  2  0  0  0  0
 77 85  2  0  0  0  0
 78 86  1  0  0  0  0
 81 84  1  0  0  0  0
 82 84  2  0  0  0  0
 85 87  1  0  0  0  0
 86 87  2  0  0  0  0
 88 92  1  0  0  0  0
 89 93  1  0  0  0  0
 90 95  1  0  0  0  0
 91 96  1  0  0  0  0
 92 98  2  0  0  0  0
 92 99  1  0  0  0  0
 93100  2  0  0  0  0
 93101  1  0  0  0  0
 94 97  1  0  0  0  0
 95102  2  0  0  0  0
 95103  1  0  0  0  0
 96104  2  0  0  0  0
 96105  1  0  0  0  0
 97112  2  0  0  0  0
 97113  1  0  0  0  0
 98107  1  0  0  0  0
 99106  2  0  0  0  0
100109  1  0  0  0  0
101108  2  0  0  0  0
102111  1  0  0  0  0
103110  2  0  0  0  0
104117  1  0  0  0  0
105116  2  0  0  0  0
106114  1  0  0  0  0
107114  2  0  0  0  0
108115  1  0  0  0  0
109115  2  0  0  0  0
110118  1  0  0  0  0
111118  2  0  0  0  0
112121  1  0  0  0  0
113120  2  0  0  0  0
116119  1  0  0  0  0
117119  2  0  0  0  0
120122  1  0  0  0  0
121122  2  0  0  0  0
M  END
> <PUBCHEM_COMPOUND_CID>
16129778

> <PUBCHEM_COMPOUND_CANONICALIZED>
1

> <PUBCHEM_CACTVS_COMPLEXITY>
3570

> <PUBCHEM_CACTVS_HBOND_ACCEPTOR>
46

> <PUBCHEM_CACTVS_HBOND_DONOR>
25

> <PUBCHEM_CACTVS_ROTATABLE_BOND>
31

> <PUBCHEM_CACTVS_SUBSKEYS>
AAADcfB8PgAAAAAAAAAAAAAAAAAAAAAAAAA0YMGDAAAAAAABVAAAGgAACAAADBSwmAMwDoAABgCIAiDSCAACCAAkIAAAiAEGiMgdJzKGNRqieyOlwBUPuYfK7DzOIAABCAAAQABAAAIQAACAAAAAAAAAAA==

> <PUBCHEM_IUPAC_OPENEYE_NAME>
[2,3-dihydroxy-5-[[(2~{R},3~{R},4~{S},5~{R},6~{S})-3,4,5,6-tetrakis[[3,4-dihydroxy-5-(3,4,5-trihydroxybenzoyl)oxy-benzoyl]oxy]tetrahydropyran-2-yl]methoxycarbonyl]phenyl] 3,4,5-trihydroxybenzoate

> <PUBCHEM_IUPAC_CAS_NAME>
3,4,5-trihydroxybenzoic acid [2,3-dihydroxy-5-[oxo-[[(2~{R},3~{R},4~{S},5~{R},6~{S})-3,4,5,6-tetrakis[[3,4-dihydroxy-5-[oxo-(3,4,5-trihydroxyphenyl)methoxy]phenyl]-oxomethoxy]-2-oxanyl]methoxy]methyl]phenyl] ester

> <PUBCHEM_IUPAC_NAME>
[2,3-dihydroxy-5-[[(2~{R},3~{R},4~{S},5~{R},6~{S})-3,4,5,6-tetrakis[[3,4-dihydroxy-5-(3,4,5-trihydroxybenzoyl)oxybenzoyl]oxy]oxan-2-yl]methoxycarbonyl]phenyl] 3,4,5-trihydroxybenzoate

> <PUBCHEM_IUPAC_SYSTEMATIC_NAME>
[2,3-bis(oxidanyl)-5-[[(2~{R},3~{R},4~{S},5~{R},6~{S})-3,4,5,6-tetrakis[[3,4-bis(oxidanyl)-5-[3,4,5-tris(oxidanyl)phenyl]carbonyloxy-phenyl]carbonyloxy]oxan-2-yl]methoxycarbonyl]phenyl] 3,4,5-tris(oxidanyl)benzoate

> <PUBCHEM_IUPAC_TRADITIONAL_NAME>
3,4,5-trihydroxybenzoic acid [2,3-dihydroxy-5-[[(2~{R},3~{R},4~{S},5~{R},6~{S})-3,4,5,6-tetrakis[(3-galloyloxy-4,5-dihydroxy-benzoyl)oxy]tetrahydropyran-2-yl]methoxycarbonyl]phenyl] ester

> <PUBCHEM_IUPAC_INCHI>
InChI=1S/C76H52O46/c77-32-1-22(2-33(78)53(32)92)67(103)113-47-16-27(11-42(87)58(47)97)66(102)112-21-52-63(119-72(108)28-12-43(88)59(98)48(17-28)114-68(104)23-3-34(79)54(93)35(80)4-23)64(120-73(109)29-13-44(89)60(99)49(18-29)115-69(105)24-5-36(81)55(94)37(82)6-24)65(121-74(110)30-14-45(90)61(100)50(19-30)116-70(106)25-7-38(83)56(95)39(84)8-25)76(118-52)122-75(111)31-15-46(91)62(101)51(20-31)117-71(107)26-9-40(85)57(96)41(86)10-26/h1-20,52,63-65,76-101H,21H2/t52-,63-,64+,65-,76+/m1/s1

> <PUBCHEM_IUPAC_INCHIKEY>
LRBQNJMCXXYXIU-PPKXGCFTSA-N

> <PUBCHEM_XLOGP3_AA>
6.2

> <PUBCHEM_EXACT_MASS>
1700.173

> <PUBCHEM_MOLECULAR_FORMULA>
C76H52O46

> <PUBCHEM_MOLECULAR_WEIGHT>
1701.206

> <PUBCHEM_OPENEYE_CAN_SMILES>
C1=C(C=C(C(=C1O)O)O)C(=O)OC2=CC(=CC(=C2O)O)C(=O)OCC3C(C(C(C(O3)OC(=O)C4=CC(=C(C(=C4)OC(=O)C5=CC(=C(C(=C5)O)O)O)O)O)OC(=O)C6=CC(=C(C(=C6)OC(=O)C7=CC(=C(C(=C7)O)O)O)O)O)OC(=O)C8=CC(=C(C(=C8)OC(=O)C9=CC(=C(C(=C9)O)O)O)O)O)OC(=O)C1=CC(=C(C(=C1)OC(=O)C1=CC(=C(C(=C1)O)O)O)O)O

> <PUBCHEM_OPENEYE_ISO_SMILES>
C1=C(C=C(C(=C1O)O)O)C(=O)OC2=CC(=CC(=C2O)O)C(=O)OC[C@@H]3[C@H]([C@@H]([C@H]([C@@H](O3)OC(=O)C4=CC(=C(C(=C4)OC(=O)C5=CC(=C(C(=C5)O)O)O)O)O)OC(=O)C6=CC(=C(C(=C6)OC(=O)C7=CC(=C(C(=C7)O)O)O)O)O)OC(=O)C8=CC(=C(C(=C8)OC(=O)C9=CC(=C(C(=C9)O)O)O)O)O)OC(=O)C1=CC(=C(C(=C1)OC(=O)C1=CC(=C(C(=C1)O)O)O)O)O

> <PUBCHEM_CACTVS_TPSA>
778

> <PUBCHEM_MONOISOTOPIC_WEIGHT>
1700.173

> <PUBCHEM_TOTAL_CHARGE>
0

> <PUBCHEM_HEAVY_ATOM_COUNT>
122

> <PUBCHEM_ATOM_DEF_STEREO_COUNT>
5

> <PUBCHEM_ATOM_UDEF_STEREO_COUNT>
0

> <PUBCHEM_BOND_DEF_STEREO_COUNT>
0

> <PUBCHEM_BOND_UDEF_STEREO_COUNT>
0

> <PUBCHEM_ISOTOPIC_ATOM_COUNT>
0

> <PUBCHEM_COMPONENT_COUNT>
1

> <PUBCHEM_CACTVS_TAUTO_COUNT>
-1

> <PUBCHEM_COORDINATE_TYPE>
1
5
255

> <PUBCHEM_BONDANNOTATIONS>
100  109  8
101  108  8
102  111  8
103  110  8
104  117  8
105  116  8
106  114  8
107  114  8
108  115  8
109  115  8
110  118  8
111  118  8
112  121  8
113  120  8
116  119  8
117  119  8
120  122  8
121  122  8
47  2  5
48  3  6
49  4  6
51  5  5
50  52  5
57  63  8
57  65  8
58  64  8
58  66  8
59  67  8
59  68  8
61  69  8
61  70  8
62  77  8
62  78  8
63  71  8
64  72  8
65  73  8
66  74  8
67  75  8
68  76  8
69  81  8
70  82  8
71  79  8
72  80  8
73  79  8
74  80  8
75  83  8
76  83  8
77  85  8
78  86  8
81  84  8
82  84  8
85  87  8
86  87  8
92  98  8
92  99  8
93  100  8
93  101  8
95  102  8
95  103  8
96  104  8
96  105  8
97  112  8
97  113  8
98  107  8
99  106  8

$$$$
22311
  -OEChem-02061913072D

 10 10  0     1  0  0  0  0  0999 V2000
    2.8660    0.7500    0.0000 C   0  0  3  0  0  0  0  0  0  0  0  0
    2.0000    0.2500    0.0000 C   0  0  0  0  0  0  0  0  0  0  0  0
    3.7320    0.2500    0.0000 C   0  0  0  0  0  0  0  0  0  0  0  0
    2.0000   -0.7500    0.0000 C   0  0  0  0  0  0  0  0  0  0  0  0
    2.8660   -1.2500    0.0000 C   0  0  0  0  0  0  0  0  0  0  0  0
    3.7320   -0.7500    0.0000 C   0  0  0  0  0  0  0  0  0  0  0  0
    2.8660    1.7500    0.0000 C   0  0  0  0  0  0  0  0  0  0  0  0
    2.8660   -2.2500    0.0000 C   0  0  0  0  0  0  0  0  0  0  0  0
    3.7320    2.2500    0.0000 C   0  0  0  0  0  0  0  0  0  0  0  0
    2.0000    2.2500    0.0000 C   0  0  0  0  0  0  0  0  0  0  0  0
  1  2  1  0  0  0  0
  1  3  1  0  0  0  0
  1  7  1  0  0  0  0
  2  4  1  0  0  0  0
  3  6  1  0  0  0  0
  4  5  1  0  0  0  0
  5  6  2  0  0  0  0
  5  8  1  0  0  0  0
  7  9  1  0  0  0  0
  7 10  2  0  0  0  0
M  END
> <PUBCHEM_COMPOUND_CID>
22311

> <PUBCHEM_COMPOUND_CANONICALIZED>
1

> <PUBCHEM_CACTVS_COMPLEXITY>
163

> <PUBCHEM_CACTVS_HBOND_ACCEPTOR>
0

> <PUBCHEM_CACTVS_HBOND_DONOR>
0

> <PUBCHEM_CACTVS_ROTATABLE_BOND>
1

> <PUBCHEM_CACTVS_SUBSKEYS>
AAADceBwAAAAAAAAAAAAAAAAAAAAAAAAAAAgAAAAAAAAAAAAAAAAGAAAAAAADQCAAAACAAAAAACAAiBCAAAAAAAgAAAACAAAAAgAAAIAAQAAAAAAgAAIAAMAgAAOAAAAAAAAAAAAAAAAAAAAAAAAAAAAAA==

> <PUBCHEM_IUPAC_OPENEYE_NAME>
4-isopropenyl-1-methyl-cyclohexene

> <PUBCHEM_IUPAC_CAS_NAME>
1-methyl-4-(1-methylethenyl)cyclohexene

> <PUBCHEM_IUPAC_NAME>
1-methyl-4-prop-1-en-2-ylcyclohexene

> <PUBCHEM_IUPAC_SYSTEMATIC_NAME>
1-methyl-4-prop-1-en-2-yl-cyclohexene

> <PUBCHEM_IUPAC_TRADITIONAL_NAME>
4-isopropenyl-1-methyl-cyclohexene

> <PUBCHEM_IUPAC_INCHI>
InChI=1S/C10H16/c1-8(2)10-6-4-9(3)5-7-10/h4,10H,1,5-7H2,2-3H3

> <PUBCHEM_IUPAC_INCHIKEY>
XMGQYMWWDOXHJM-UHFFFAOYSA-N

> <PUBCHEM_XLOGP3_AA>
3.4

> <PUBCHEM_EXACT_MASS>
136.125

> <PUBCHEM_MOLECULAR_FORMULA>
C10H16

> <PUBCHEM_MOLECULAR_WEIGHT>
136.238

> <PUBCHEM_OPENEYE_CAN_SMILES>
CC1=CCC(CC1)C(=C)C

> <PUBCHEM_OPENEYE_ISO_SMILES>
CC1=CCC(CC1)C(=C)C

> <PUBCHEM_CACTVS_TPSA>
0

> <PUBCHEM_MONOISOTOPIC_WEIGHT>
136.125

> <PUBCHEM_TOTAL_CHARGE>
0

> <PUBCHEM_HEAVY_ATOM_COUNT>
10

> <PUBCHEM_ATOM_DEF_STEREO_COUNT>
0

> <PUBCHEM_ATOM_UDEF_STEREO_COUNT>
1

> <PUBCHEM_BOND_DEF_STEREO_COUNT>
0

> <PUBCHEM_BOND_UDEF_STEREO_COUNT>
0

> <PUBCHEM_ISOTOPIC_ATOM_COUNT>
0

> <PUBCHEM_COMPONENT_COUNT>
1

> <PUBCHEM_CACTVS_TAUTO_COUNT>
-1

> <PUBCHEM_COORDINATE_TYPE>
1
5
255

> <PUBCHEM_BONDANNOTATIONS>
1  7  3

$$$$
6536972
  -OEChem-02061913372D

 29 31  0     1  0  0  0  0  0999 V2000
    5.4641   -4.8465    0.0000 O   0  0  0  0  0  0  0  0  0  0  0  0
    5.4641    1.1535    0.0000 C   0  0  2  0  0  0  0  0  0  0  0  0
    6.4103    1.4582    0.0000 C   0  0  2  0  0  0  0  0  0  0  0  0
    5.4641    0.1535    0.0000 C   0  0  1  0  0  0  0  0  0  0  0  0
    6.9939    0.6535    0.0000 C   0  0  0  0  0  0  0  0  0  0  0  0
    6.4103   -0.1512    0.0000 C   0  0  0  0  0  0  0  0  0  0  0  0
    4.5981    1.6535    0.0000 C   0  0  0  0  0  0  0  0  0  0  0  0
    6.7210    2.4087    0.0000 C   0  0  2  0  0  0  0  0  0  0  0  0
    4.5981   -0.3465    0.0000 C   0  0  0  0  0  0  0  0  0  0  0  0
    5.4641    2.1535    0.0000 C   0  0  0  0  0  0  0  0  0  0  0  0
    3.7320    1.1535    0.0000 C   0  0  0  0  0  0  0  0  0  0  0  0
    3.7320    0.1535    0.0000 C   0  0  0  0  0  0  0  0  0  0  0  0
    6.0531    3.1530    0.0000 C   0  0  0  0  0  0  0  0  0  0  0  0
    7.6995    2.6150    0.0000 C   0  0  0  0  0  0  0  0  0  0  0  0
    4.5981   -1.3465    0.0000 C   0  0  0  0  0  0  0  0  0  0  0  0
    8.0102    3.5655    0.0000 C   0  0  0  0  0  0  0  0  0  0  0  0
    3.7320   -1.8465    0.0000 C   0  0  0  0  0  0  0  0  0  0  0  0
    8.9887    3.7717    0.0000 C   0  0  1  0  0  0  0  0  0  0  0  0
    3.7320   -2.8465    0.0000 C   0  0  0  0  0  0  0  0  0  0  0  0
    9.2993    4.7222    0.0000 C   0  0  0  0  0  0  0  0  0  0  0  0
    4.5981   -3.3465    0.0000 C   0  0  0  0  0  0  0  0  0  0  0  0
    9.6565    3.0274    0.0000 C   0  0  0  0  0  0  0  0  0  0  0  0
    2.8660   -3.3465    0.0000 C   0  0  0  0  0  0  0  0  0  0  0  0
    4.5981   -4.3465    0.0000 C   0  0  2  0  0  0  0  0  0  0  0  0
    2.8660   -4.3465    0.0000 C   0  0  0  0  0  0  0  0  0  0  0  0
    3.7320   -4.8465    0.0000 C   0  0  0  0  0  0  0  0  0  0  0  0
   10.2778    4.9284    0.0000 C   0  0  0  0  0  0  0  0  0  0  0  0
    8.6315    5.4665    0.0000 C   0  0  0  0  0  0  0  0  0  0  0  0
    2.0000   -2.8465    0.0000 C   0  0  0  0  0  0  0  0  0  0  0  0
 24  1  1  1  0  0  0
  2  3  1  0  0  0  0
  2  4  1  0  0  0  0
  2  7  1  0  0  0  0
  2 10  1  1  0  0  0
  3  5  1  0  0  0  0
  3  8  1  0  0  0  0
  4  6  1  0  0  0  0
  4  9  1  0  0  0  0
  5  6  1  0  0  0  0
  7 11  1  0  0  0  0
  8 13  1  6  0  0  0
  8 14  1  0  0  0  0
  9 12  1  0  0  0  0
  9 15  2  0  0  0  0
 11 12  1  0  0  0  0
 14 16  2  0  0  0  0
 15 17  1  0  0  0  0
 16 18  1  0  0  0  0
 17 19  2  0  0  0  0
 18 20  1  0  0  0  0
 18 22  1  1  0  0  0
 19 21  1  0  0  0  0
 19 23  1  0  0  0  0
 20 27  1  0  0  0  0
 20 28  1  0  0  0  0
 21 24  1  0  0  0  0
 23 25  1  0  0  0  0
 23 29  2  0  0  0  0
 24 26  1  0  0  0  0
 25 26  1  0  0  0  0
M  END
> <PUBCHEM_COMPOUND_CID>
6536972

> <PUBCHEM_COMPOUND_CANONICALIZED>
1

> <PUBCHEM_CACTVS_COMPLEXITY>
678

> <PUBCHEM_CACTVS_HBOND_ACCEPTOR>
1

> <PUBCHEM_CACTVS_HBOND_DONOR>
1

> <PUBCHEM_CACTVS_ROTATABLE_BOND>
5

> <PUBCHEM_CACTVS_SUBSKEYS>
AAADcfB4IAAAAAAAAAAAAAAAAAAAAYAAAAAwYAAAAAAAAGAAAAAAGgAACAAADxSggAICAAAAAgCAAiBCAAAAAAAgAAAICAAAAAgIEAIAAQAAQAAEwAAIgAOAwMAPgAAAAAAAAAAAAAAAACAAAQAACAAAAA==

> <PUBCHEM_IUPAC_OPENEYE_NAME>
(1~{S},3~{E})-3-[(2~{E})-2-[(1~{R},3~{a}~{S},7~{a}~{R})-7~{a}-methyl-1-[(~{E},1~{R},4~{R})-1,4,5-trimethylhex-2-enyl]-2,3,3~{a},5,6,7-hexahydro-1~{H}-inden-4-ylidene]ethylidene]-4-methylene-cyclohexanol

> <PUBCHEM_IUPAC_CAS_NAME>
(1~{S},3~{E})-3-[(2~{E})-2-[(1~{R},3~{a}~{S},7~{a}~{R})-1-[(~{E},2~{R},5~{R})-5,6-dimethylhept-3-en-2-yl]-7~{a}-methyl-2,3,3~{a},5,6,7-hexahydro-1~{H}-inden-4-ylidene]ethylidene]-4-methylene-1-cyclohexanol

> <PUBCHEM_IUPAC_NAME>
(1~{S},3~{E})-3-[(2~{E})-2-[(1~{R},3~{a}~{S},7~{a}~{R})-1-[(~{E},2~{R},5~{R})-5,6-dimethylhept-3-en-2-yl]-7~{a}-methyl-2,3,3~{a},5,6,7-hexahydro-1~{H}-inden-4-ylidene]ethylidene]-4-methylidenecyclohexan-1-ol

> <PUBCHEM_IUPAC_SYSTEMATIC_NAME>
(1~{S},3~{E})-3-[(2~{E})-2-[(1~{R},3~{a}~{S},7~{a}~{R})-1-[(~{E},2~{R},5~{R})-5,6-dimethylhept-3-en-2-yl]-7~{a}-methyl-2,3,3~{a},5,6,7-hexahydro-1~{H}-inden-4-ylidene]ethylidene]-4-methylidene-cyclohexan-1-ol

> <PUBCHEM_IUPAC_TRADITIONAL_NAME>
(1~{S},3~{E})-3-[(2~{E})-2-[(1~{R},3~{a}~{S},7~{a}~{R})-7~{a}-methyl-1-[(~{E},1~{R},4~{R})-1,4,5-trimethylhex-2-enyl]-2,3,3~{a},5,6,7-hexahydro-1~{H}-inden-4-ylidene]ethylidene]-4-methylene-cyclohexanol

> <PUBCHEM_IUPAC_INCHI>
InChI=1S/C28H44O/c1-19(2)20(3)9-10-22(5)26-15-16-27-23(8-7-17-28(26,27)6)12-13-24-18-25(29)14-11-21(24)4/h9-10,12-13,19-20,22,25-27,29H,4,7-8,11,14-18H2,1-3,5-6H3/b10-9+,23-12+,24-13+/t20-,22+,25-,26+,27-,28+/m0/s1

> <PUBCHEM_IUPAC_INCHIKEY>
MECHNRXZTMCUDQ-VLOQVYPSSA-N

> <PUBCHEM_XLOGP3_AA>
7.4

> <PUBCHEM_EXACT_MASS>
396.339

> <PUBCHEM_MOLECULAR_FORMULA>
C28H44O

> <PUBCHEM_MOLECULAR_WEIGHT>
396.659

> <PUBCHEM_OPENEYE_CAN_SMILES>
CC(C)C(C)C=CC(C)C1CCC2C1(CCCC2=CC=C3CC(CCC3=C)O)C

> <PUBCHEM_OPENEYE_ISO_SMILES>
C[C@H](/C=C/[C@H](C)C(C)C)[C@H]1CC[C@@H]\2[C@@]1(CCC/C2=C\C=C\3/C[C@H](CCC3=C)O)C

> <PUBCHEM_CACTVS_TPSA>
20.2

> <PUBCHEM_MONOISOTOPIC_WEIGHT>
396.339

> <PUBCHEM_TOTAL_CHARGE>
0

> <PUBCHEM_HEAVY_ATOM_COUNT>
29

> <PUBCHEM_ATOM_DEF_STEREO_COUNT>
6

> <PUBCHEM_ATOM_UDEF_STEREO_COUNT>
0

> <PUBCHEM_BOND_DEF_STEREO_COUNT>
3

> <PUBCHEM_BOND_UDEF_STEREO_COUNT>
0

> <PUBCHEM_ISOTOPIC_ATOM_COUNT>
0

> <PUBCHEM_COMPONENT_COUNT>
1

> <PUBCHEM_CACTVS_TAUTO_COUNT>
-1

> <PUBCHEM_COORDINATE_TYPE>
1
5
255

> <PUBCHEM_BONDANNOTATIONS>
24  1  5
18  22  5
2  10  5
3  30  6
4  31  6
8  13  6

$$$$
5988
  -OEChem-02061913062D

 23 24  0     1  0  0  0  0  0999 V2000
    5.8671    0.7306    0.0000 O   0  0  0  0  0  0  0  0  0  0  0  0
    6.8671   -0.2694    0.0000 O   0  0  0  0  0  0  0  0  0  0  0  0
    5.1350   -0.2694    0.0000 O   0  0  0  0  0  0  0  0  0  0  0  0
    8.1271    1.9906    0.0000 O   0  0  0  0  0  0  0  0  0  0  0  0
    6.3671    3.2694    0.0000 O   0  0  0  0  0  0  0  0  0  0  0  0
    6.8671   -2.2694    0.0000 O   0  0  0  0  0  0  0  0  0  0  0  0
    5.1350   -3.2694    0.0000 O   0  0  0  0  0  0  0  0  0  0  0  0
    3.4030   -2.2694    0.0000 O   0  0  0  0  0  0  0  0  0  0  0  0
    8.5613    1.0907    0.0000 O   0  0  0  0  0  0  0  0  0  0  0  0
    4.3991    2.9688    0.0000 O   0  0  0  0  0  0  0  0  0  0  0  0
    2.5369   -0.7694    0.0000 O   0  0  0  0  0  0  0  0  0  0  0  0
    6.8671    0.7306    0.0000 C   0  0  1  0  0  0  0  0  0  0  0  0
    7.1761    1.6816    0.0000 C   0  0  2  0  0  0  0  0  0  0  0  0
    6.3671    2.2694    0.0000 C   0  0  1  0  0  0  0  0  0  0  0  0
    5.5580    1.6816    0.0000 C   0  0  1  0  0  0  0  0  0  0  0  0
    6.0010   -0.7694    0.0000 C   0  0  1  0  0  0  0  0  0  0  0  0
    6.0010   -1.7694    0.0000 C   0  0  1  0  0  0  0  0  0  0  0  0
    5.1350   -2.2694    0.0000 C   0  0  2  0  0  0  0  0  0  0  0  0
    4.2690   -1.7694    0.0000 C   0  0  1  0  0  0  0  0  0  0  0  0
    4.2690   -0.7694    0.0000 C   0  0  1  0  0  0  0  0  0  0  0  0
    7.8181    0.4216    0.0000 C   0  0  0  0  0  0  0  0  0  0  0  0
    4.6070    1.9906    0.0000 C   0  0  0  0  0  0  0  0  0  0  0  0
    3.4030   -0.2694    0.0000 C   0  0  0  0  0  0  0  0  0  0  0  0
  1 12  1  0  0  0  0
  1 15  1  0  0  0  0
 12  2  1  6  0  0  0
 16  2  1  6  0  0  0
  3 16  1  0  0  0  0
  3 20  1  0  0  0  0
 13  4  1  6  0  0  0
 14  5  1  1  0  0  0
 17  6  1  6  0  0  0
 18  7  1  1  0  0  0
 19  8  1  6  0  0  0
  9 21  1  0  0  0  0
 10 22  1  0  0  0  0
 11 23  1  0  0  0  0
 12 13  1  0  0  0  0
 12 21  1  0  0  0  0
 13 14  1  0  0  0  0
 14 15  1  0  0  0  0
 15 22  1  6  0  0  0
 16 17  1  0  0  0  0
 17 18  1  0  0  0  0
 18 19  1  0  0  0  0
 19 20  1  0  0  0  0
 20 23  1  1  0  0  0
M  END
> <PUBCHEM_COMPOUND_CID>
5988

> <PUBCHEM_COMPOUND_CANONICALIZED>
1

> <PUBCHEM_CACTVS_COMPLEXITY>
395

> <PUBCHEM_CACTVS_HBOND_ACCEPTOR>
11

> <PUBCHEM_CACTVS_HBOND_DONOR>
8

> <PUBCHEM_CACTVS_ROTATABLE_BOND>
5

> <PUBCHEM_CACTVS_SUBSKEYS>
AAADceBwPAAAAAAAAAAAAAAAAAAAASAAAAAkAAAAAAAAAAAAAAAAGgAACAAACBSwgAMACAAABgAAAAAAAAAAAAAAAAAAAAAAAAAREAIAAAAiQAAFAAAHAAHAYAwAAAAAAAAAAAAAAAAAAAAAAAAAAAAAAA==

> <PUBCHEM_IUPAC_OPENEYE_NAME>
(2~{R},3~{R},4~{S},5~{S},6~{R})-2-[(2~{S},3~{S},4~{S},5~{R})-3,4-dihydroxy-2,5-bis(hydroxymethyl)tetrahydrofuran-2-yl]oxy-6-(hydroxymethyl)tetrahydropyran-3,4,5-triol

> <PUBCHEM_IUPAC_CAS_NAME>
(2~{R},3~{R},4~{S},5~{S},6~{R})-2-[[(2~{S},3~{S},4~{S},5~{R})-3,4-dihydroxy-2,5-bis(hydroxymethyl)-2-oxolanyl]oxy]-6-(hydroxymethyl)oxane-3,4,5-triol

> <PUBCHEM_IUPAC_NAME>
(2~{R},3~{R},4~{S},5~{S},6~{R})-2-[(2~{S},3~{S},4~{S},5~{R})-3,4-dihydroxy-2,5-bis(hydroxymethyl)oxolan-2-yl]oxy-6-(hydroxymethyl)oxane-3,4,5-triol

> <PUBCHEM_IUPAC_SYSTEMATIC_NAME>
(2~{R},3~{R},4~{S},5~{S},6~{R})-2-[(2~{S},3~{S},4~{S},5~{R})-2,5-bis(hydroxymethyl)-3,4-bis(oxidanyl)oxolan-2-yl]oxy-6-(hydroxymethyl)oxane-3,4,5-triol

> <PUBCHEM_IUPAC_TRADITIONAL_NAME>
(2~{R},3~{R},4~{S},5~{S},6~{R})-2-[(2~{S},3~{S},4~{S},5~{R})-3,4-dihydroxy-2,5-dimethylol-tetrahydrofuran-2-yl]oxy-6-methylol-tetrahydropyran-3,4,5-triol

> <PUBCHEM_IUPAC_INCHI>
InChI=1S/C12H22O11/c13-1-4-6(16)8(18)9(19)11(21-4)23-12(3-15)10(20)7(17)5(2-14)22-12/h4-11,13-20H,1-3H2/t4-,5-,6-,7-,8+,9-,10+,11-,12+/m1/s1

> <PUBCHEM_IUPAC_INCHIKEY>
CZMRCDWAGMRECN-UGDNZRGBSA-N

> <PUBCHEM_XLOGP3>
-3.7

> <PUBCHEM_EXACT_MASS>
342.116

> <PUBCHEM_MOLECULAR_FORMULA>
C12H22O11

> <PUBCHEM_MOLECULAR_WEIGHT>
342.297

> <PUBCHEM_OPENEYE_CAN_SMILES>
C(C1C(C(C(C(O1)OC2(C(C(C(O2)CO)O)O)CO)O)O)O)O

> <PUBCHEM_OPENEYE_ISO_SMILES>
C([C@@H]1[C@H]([C@@H]([C@H]([C@H](O1)O[C@]2([C@H]([C@@H]([C@H](O2)CO)O)O)CO)O)O)O)O

> <PUBCHEM_CACTVS_TPSA>
190

> <PUBCHEM_MONOISOTOPIC_WEIGHT>
342.116

> <PUBCHEM_TOTAL_CHARGE>
0

> <PUBCHEM_HEAVY_ATOM_COUNT>
23

> <PUBCHEM_ATOM_DEF_STEREO_COUNT>
9

> <PUBCHEM_ATOM_UDEF_STEREO_COUNT>
0

> <PUBCHEM_BOND_DEF_STEREO_COUNT>
0

> <PUBCHEM_BOND_UDEF_STEREO_COUNT>
0

> <PUBCHEM_ISOTOPIC_ATOM_COUNT>
0

> <PUBCHEM_COMPONENT_COUNT>
1

> <PUBCHEM_CACTVS_TAUTO_COUNT>
-1

> <PUBCHEM_COORDINATE_TYPE>
1
5
255

> <PUBCHEM_BONDANNOTATIONS>
15  22  6
12  2  6
16  2  6
20  23  5
13  4  6
14  5  5
17  6  6
18  7  5
19  8  6

$$$$
24832091
  -OEChem-02061914072D

 31 32  0     1  0  0  0  0  0999 V2000
    6.0010   -1.0000    0.0000 O   0  0  0  0  0  0  0  0  0  0  0  0
    7.7331    1.0000    0.0000 O   0  0  0  0  0  0  0  0  0  0  0  0
    5.1350    0.5000    0.0000 O   0  0  0  0  0  0  0  0  0  0  0  0
    7.7331   -2.0000    0.0000 O   0  0  0  0  0  0  0  0  0  0  0  0
    9.4651   -1.0000    0.0000 O   0  0  0  0  0  0  0  0  0  0  0  0
    9.4651    1.0000    0.0000 O   0  0  0  0  0  0  0  0  0  0  0  0
    2.5369    1.0000    0.0000 O   0  0  0  0  0  0  0  0  0  0  0  0
    4.2690   -2.0000    0.0000 O   0  0  0  0  0  0  0  0  0  0  0  0
    2.5369   -1.0000    0.0000 O   0  0  0  0  0  0  0  0  0  0  0  0
    6.0010    2.0000    0.0000 O   0  0  0  0  0  0  0  0  0  0  0  0
    5.1350    2.5000    0.0000 O   0  0  0  0  0  0  0  0  0  0  0  0
    6.8671   -0.5000    0.0000 C   0  0  3  0  0  0  0  0  0  0  0  0
    7.7331   -1.0000    0.0000 C   0  0  3  0  0  0  0  0  0  0  0  0
    6.8671    0.5000    0.0000 C   0  0  3  0  0  0  0  0  0  0  0  0
    8.5991   -0.5000    0.0000 C   0  0  3  0  0  0  0  0  0  0  0  0
    5.1350   -0.5000    0.0000 C   0  0  3  0  0  0  0  0  0  0  0  0
    4.2690   -1.0000    0.0000 C   0  0  3  0  0  0  0  0  0  0  0  0
    8.5991    0.5000    0.0000 C   0  0  3  0  0  0  0  0  0  0  0  0
    3.4030   -0.5000    0.0000 C   0  0  3  0  0  0  0  0  0  0  0  0
    3.4030    0.5000    0.0000 C   0  0  3  0  0  0  0  0  0  0  0  0
    4.2690    1.0000    0.0000 C   0  0  3  0  0  0  0  0  0  0  0  0
    6.0010    1.0000    0.0000 C   0  0  0  0  0  0  0  0  0  0  0  0
    4.2690    2.0000    0.0000 C   0  0  0  0  0  0  0  0  0  0  0  0
    8.5991   -2.5000    0.0000 C   0  0  0  0  0  0  0  0  0  0  0  0
   10.3312   -0.5000    0.0000 C   0  0  0  0  0  0  0  0  0  0  0  0
    9.4651    2.0000    0.0000 C   0  0  0  0  0  0  0  0  0  0  0  0
    2.5369    2.0000    0.0000 C   0  0  0  0  0  0  0  0  0  0  0  0
    8.5991   -3.5000    0.0000 C   0  0  0  0  0  0  0  0  0  0  0  0
    6.8671    2.5000    0.0000 C   0  0  0  0  0  0  0  0  0  0  0  0
   11.1972   -1.0000    0.0000 C   0  0  0  0  0  0  0  0  0  0  0  0
    6.8671    3.5000    0.0000 C   0  0  0  0  0  0  0  0  0  0  0  0
  1 12  1  0  0  0  0
  1 16  1  0  0  0  0
  2 14  1  0  0  0  0
  2 18  1  0  0  0  0
  3 16  1  0  0  0  0
  3 21  1  0  0  0  0
  4 13  1  0  0  0  0
  4 24  1  0  0  0  0
  5 15  1  0  0  0  0
  5 25  1  0  0  0  0
  6 18  1  0  0  0  0
  6 26  1  0  0  0  0
  7 20  1  0  0  0  0
  7 27  1  0  0  0  0
  8 17  1  0  0  0  0
  9 19  1  0  0  0  0
 10 22  1  0  0  0  0
 10 29  1  0  0  0  0
 11 23  1  0  0  0  0
 12 13  1  0  0  0  0
 12 14  1  0  0  0  0
 13 15  1  0  0  0  0
 14 22  1  0  0  0  0
 15 18  1  0  0  0  0
 16 17  1  0  0  0  0
 17 19  1  0  0  0  0
 19 20  1  0  0  0  0
 20 21  1  0  0  0  0
 21 23  1  0  0  0  0
 24 28  1  0  0  0  0
 25 30  1  0  0  0  0
 29 31  1  0  0  0  0
M  END
> <PUBCHEM_COMPOUND_CID>
24832091

> <PUBCHEM_COMPOUND_CANONICALIZED>
1

> <PUBCHEM_CACTVS_COMPLEXITY>
496

> <PUBCHEM_CACTVS_HBOND_ACCEPTOR>
11

> <PUBCHEM_CACTVS_HBOND_DONOR>
3

> <PUBCHEM_CACTVS_ROTATABLE_BOND>
12

> <PUBCHEM_CACTVS_SUBSKEYS>
AAADcfB4PAAAAAAAAAAAAAAAAAAAAAAAAAAkSAAAAAAAAAAAAAAAGgAACAAACBSwgAMCCAAABgAAAAAAAAAAAAAAAAAAAAAAAAAREAIAAAAiQAAFAAAHAAHAYAwAAAAAAAAAAAAAAAAAAAAAAAAAAAAAAA==

> <PUBCHEM_IUPAC_OPENEYE_NAME>
2-[4,5-diethoxy-2-(ethoxymethyl)-6-methoxy-tetrahydropyran-3-yl]oxy-6-(hydroxymethyl)-5-methoxy-tetrahydropyran-3,4-diol

> <PUBCHEM_IUPAC_CAS_NAME>
2-[[4,5-diethoxy-2-(ethoxymethyl)-6-methoxy-3-oxanyl]oxy]-6-(hydroxymethyl)-5-methoxyoxane-3,4-diol

> <PUBCHEM_IUPAC_NAME>
2-[4,5-diethoxy-2-(ethoxymethyl)-6-methoxyoxan-3-yl]oxy-6-(hydroxymethyl)-5-methoxyoxane-3,4-diol

> <PUBCHEM_IUPAC_SYSTEMATIC_NAME>
2-[4,5-diethoxy-2-(ethoxymethyl)-6-methoxy-oxan-3-yl]oxy-6-(hydroxymethyl)-5-methoxy-oxane-3,4-diol

> <PUBCHEM_IUPAC_TRADITIONAL_NAME>
2-[4,5-diethoxy-2-(ethoxymethyl)-6-methoxy-tetrahydropyran-3-yl]oxy-5-methoxy-6-methylol-tetrahydropyran-3,4-diol

> <PUBCHEM_IUPAC_INCHI>
InChI=1S/C20H38O11/c1-6-26-10-12-16(17(27-7-2)18(28-8-3)20(25-5)30-12)31-19-14(23)13(22)15(24-4)11(9-21)29-19/h11-23H,6-10H2,1-5H3

> <PUBCHEM_IUPAC_INCHIKEY>
ZZSNKZQZMQGXPY-UHFFFAOYSA-N

> <PUBCHEM_XLOGP3_AA>
-1.5

> <PUBCHEM_EXACT_MASS>
454.241

> <PUBCHEM_MOLECULAR_FORMULA>
C20H38O11

> <PUBCHEM_MOLECULAR_WEIGHT>
454.513

> <PUBCHEM_OPENEYE_CAN_SMILES>
CCOCC1C(C(C(C(O1)OC)OCC)OCC)OC2C(C(C(C(O2)CO)OC)O)O

> <PUBCHEM_OPENEYE_ISO_SMILES>
CCOCC1C(C(C(C(O1)OC)OCC)OCC)OC2C(C(C(C(O2)CO)OC)O)O

> <PUBCHEM_CACTVS_TPSA>
135

> <PUBCHEM_MONOISOTOPIC_WEIGHT>
454.241

> <PUBCHEM_TOTAL_CHARGE>
0

> <PUBCHEM_HEAVY_ATOM_COUNT>
31

> <PUBCHEM_ATOM_DEF_STEREO_COUNT>
0

> <PUBCHEM_ATOM_UDEF_STEREO_COUNT>
10

> <PUBCHEM_BOND_DEF_STEREO_COUNT>
0

> <PUBCHEM_BOND_UDEF_STEREO_COUNT>
0

> <PUBCHEM_ISOTOPIC_ATOM_COUNT>
0

> <PUBCHEM_COMPONENT_COUNT>
1

> <PUBCHEM_CACTVS_TAUTO_COUNT>
-1

> <PUBCHEM_COORDINATE_TYPE>
1
5
255

> <PUBCHEM_BONDANNOTATIONS>
12  1  3
16  1  3
14  22  3
21  23  3
13  4  3
15  5  3
18  6  3
20  7  3
17  8  3
19  9  3

$$$$
439551
  -OEChem-02061913092D

 25 29  0     1  0  0  0  0  0999 V2000
    5.3027    0.5374    0.0000 O   0  0  0  0  0  0  0  0  0  0  0  0
    9.0640   -1.7746    0.0000 O   0  0  0  0  0  0  0  0  0  0  0  0
    2.3580   -0.5632    0.0000 O   0  0  0  0  0  0  0  0  0  0  0  0
    2.8808    1.0940    0.0000 O   0  0  0  0  0  0  0  0  0  0  0  0
    6.3795    1.7658    0.0000 O   0  0  0  0  0  0  0  0  0  0  0  0
    4.6536    1.6203    0.0000 O   0  0  0  0  0  0  0  0  0  0  0  0
    6.3708   -0.3508    0.0000 C   0  0  1  0  0  0  0  0  0  0  0  0
    6.0688   -1.2180    0.0000 C   0  0  2  0  0  0  0  0  0  0  0  0
    4.8938   -0.3224    0.0000 C   0  0  2  0  0  0  0  0  0  0  0  0
    5.1568   -1.1965    0.0000 C   0  0  2  0  0  0  0  0  0  0  0  0
    5.6426    0.1984    0.0000 C   0  0  2  0  0  0  0  0  0  0  0  0
    7.0668   -1.1832    0.0000 C   0  0  0  0  0  0  0  0  0  0  0  0
    3.9765   -0.1064    0.0000 C   0  0  3  0  0  0  0  0  0  0  0  0
    8.1197   -1.4458    0.0000 C   0  0  2  0  0  0  0  0  0  0  0  0
    7.2376   -0.0462    0.0000 C   0  0  0  0  0  0  0  0  0  0  0  0
    6.5591   -1.9946    0.0000 C   0  0  0  0  0  0  0  0  0  0  0  0
    7.4714   -2.0958    0.0000 C   0  0  0  0  0  0  0  0  0  0  0  0
    8.0153   -0.5332    0.0000 C   0  0  0  0  0  0  0  0  0  0  0  0
    4.5190   -1.9110    0.0000 C   0  0  0  0  0  0  0  0  0  0  0  0
    3.3314   -0.7926    0.0000 C   0  0  2  0  0  0  0  0  0  0  0  0
    3.7116    0.5374    0.0000 C   0  0  0  0  0  0  0  0  0  0  0  0
    5.5586    1.1949    0.0000 C   0  0  0  0  0  0  0  0  0  0  0  0
    2.9930    0.0748    0.0000 C   0  0  0  0  0  0  0  0  0  0  0  0
    3.6028   -1.6953    0.0000 C   0  0  0  0  0  0  0  0  0  0  0  0
    8.8189    0.0619    0.0000 C   0  0  0  0  0  0  0  0  0  0  0  0
 10  1  1  1  0  0  0
  1 21  1  0  0  0  0
 14  2  1  1  0  0  0
 20  3  1  6  0  0  0
  4 21  2  0  0  0  0
  5 22  1  0  0  0  0
  6 22  2  0  0  0  0
  7  8  1  0  0  0  0
  7 11  1  0  0  0  0
  7 12  1  1  0  0  0
  7 15  1  0  0  0  0
  8 10  1  0  0  0  0
  8 16  1  0  0  0  0
  9 10  1  0  0  0  0
  9 11  1  0  0  0  0
  9 13  1  0  0  0  0
 10 19  1  0  0  0  0
 11 22  1  6  0  0  0
 12 14  1  0  0  0  0
 13 20  1  0  0  0  0
 13 21  1  0  0  0  0
 13 23  1  0  0  0  0
 14 17  1  0  0  0  0
 14 18  1  0  0  0  0
 15 18  1  0  0  0  0
 16 17  1  0  0  0  0
 18 25  2  0  0  0  0
 19 24  2  0  0  0  0
 20 24  1  0  0  0  0
M  END
> <PUBCHEM_COMPOUND_CID>
439551

> <PUBCHEM_COMPOUND_CANONICALIZED>
1

> <PUBCHEM_CACTVS_COMPLEXITY>
772

> <PUBCHEM_CACTVS_HBOND_ACCEPTOR>
6

> <PUBCHEM_CACTVS_HBOND_DONOR>
3

> <PUBCHEM_CACTVS_ROTATABLE_BOND>
1

> <PUBCHEM_CACTVS_SUBSKEYS>
AAADceB4OAAAAAAAAAAAAAAAAAAAAaMEAAAwQAAABggSAGDAAAAAGgAACAAAD1SggAICCAAABgCIAiDSCAAAAAAgAAAICAEAAAgAFBYAIQACUAAFoAAIMAPK7vzPgAAAAAAAAADAAAYAACAAAYAADAAAAA==

> <PUBCHEM_IUPAC_OPENEYE_NAME>
(1~{R},2~{R},5~{S},8~{S},9~{S},10~{R},12~{S})-5,12-dihydroxy-11-methyl-6-methylene-16-oxo-15-oxapentacyclo[9.3.2.1^{5,8}.0^{1,10}.0^{2,8}]heptadec-13-ene-9-carboxylic acid

> <PUBCHEM_IUPAC_CAS_NAME>
(1~{R},2~{R},5~{S},8~{S},9~{S},10~{R},12~{S})-5,12-dihydroxy-11-methyl-6-methylene-16-oxo-15-oxapentacyclo[9.3.2.1^{5,8}.0^{1,10}.0^{2,8}]heptadec-13-ene-9-carboxylic acid

> <PUBCHEM_IUPAC_NAME>
(1~{R},2~{R},5~{S},8~{S},9~{S},10~{R},12~{S})-5,12-dihydroxy-11-methyl-6-methylidene-16-oxo-15-oxapentacyclo[9.3.2.1^{5,8}.0^{1,10}.0^{2,8}]heptadec-13-ene-9-carboxylic acid

> <PUBCHEM_IUPAC_SYSTEMATIC_NAME>
(1~{R},2~{R},5~{S},8~{S},9~{S},10~{R},12~{S})-11-methyl-6-methylidene-5,12-bis(oxidanyl)-16-oxidanylidene-15-oxapentacyclo[9.3.2.1^{5,8}.0^{1,10}.0^{2,8}]heptadec-13-ene-9-carboxylic acid

> <PUBCHEM_IUPAC_TRADITIONAL_NAME>
(1~{R},2~{R},5~{S},8~{S},9~{S},10~{R},12~{S})-5,12-dihydroxy-16-keto-11-methyl-6-methylene-15-oxapentacyclo[9.3.2.1^{5,8}.0^{1,10}.0^{2,8}]heptadec-13-ene-9-carboxylic acid

> <PUBCHEM_IUPAC_INCHI>
InChI=1S/C19H22O6/c1-9-7-17-8-18(9,24)5-3-10(17)19-6-4-11(20)16(2,15(23)25-19)13(19)12(17)14(21)22/h4,6,10-13,20,24H,1,3,5,7-8H2,2H3,(H,21,22)/t10-,11+,12-,13-,16?,17+,18+,19-/m1/s1

> <PUBCHEM_IUPAC_INCHIKEY>
IXORZMNAPKEEDV-QTWFBFKQSA-N

> <PUBCHEM_XLOGP3>
0.2

> <PUBCHEM_EXACT_MASS>
346.142

> <PUBCHEM_MOLECULAR_FORMULA>
C19H22O6

> <PUBCHEM_MOLECULAR_WEIGHT>
346.379

> <PUBCHEM_OPENEYE_CAN_SMILES>
CC12C(C=CC3(C1C(C45C3CCC(C4)(C(=C)C5)O)C(=O)O)OC2=O)O

> <PUBCHEM_OPENEYE_ISO_SMILES>
CC12[C@H](C=C[C@@]3([C@@H]1[C@@H]([C@]45[C@H]3CC[C@](C4)(C(=C)C5)O)C(=O)O)OC2=O)O

> <PUBCHEM_CACTVS_TPSA>
104

> <PUBCHEM_MONOISOTOPIC_WEIGHT>
346.142

> <PUBCHEM_TOTAL_CHARGE>
0

> <PUBCHEM_HEAVY_ATOM_COUNT>
25

> <PUBCHEM_ATOM_DEF_STEREO_COUNT>
7

> <PUBCHEM_ATOM_UDEF_STEREO_COUNT>
1

> <PUBCHEM_BOND_DEF_STEREO_COUNT>
0

> <PUBCHEM_BOND_UDEF_STEREO_COUNT>
0

> <PUBCHEM_ISOTOPIC_ATOM_COUNT>
0

> <PUBCHEM_COMPONENT_COUNT>
1

> <PUBCHEM_CACTVS_TAUTO_COUNT>
-1

> <PUBCHEM_COORDINATE_TYPE>
1
5
255

> <PUBCHEM_BONDANNOTATIONS>
10  1  5
11  22  6
13  23  3
14  2  5
20  3  6
7  12  5
8  26  6
9  27  6

$$$$
996
  -OEChem-02061913062D

  7  7  0     0  0  0  0  0  0999 V2000
    2.8660    1.3450    0.0000 O   0  0  0  0  0  0  0  0  0  0  0  0
    2.8660    0.3450    0.0000 C   0  0  0  0  0  0  0  0  0  0  0  0
    2.0000   -0.1550    0.0000 C   0  0  0  0  0  0  0  0  0  0  0  0
    3.7320   -0.1550    0.0000 C   0  0  0  0  0  0  0  0  0  0  0  0
    2.0000   -1.1550    0.0000 C   0  0  0  0  0  0  0  0  0  0  0  0
    3.7320   -1.1550    0.0000 C   0  0  0  0  0  0  0  0  0  0  0  0
    2.8660   -1.6550    0.0000 C   0  0  0  0  0  0  0  0  0  0  0  0
  1  2  1  0  0  0  0
  2  3  2  0  0  0  0
  2  4  1  0  0  0  0
  3  5  1  0  0  0  0
  4  6  2  0  0  0  0
  5  7  2  0  0  0  0
  6  7  1  0  0  0  0
M  END
> <PUBCHEM_COMPOUND_CID>
996

> <PUBCHEM_COMPOUND_CANONICALIZED>
1

> <PUBCHEM_CACTVS_COMPLEXITY>
46.1

> <PUBCHEM_CACTVS_HBOND_ACCEPTOR>
1

> <PUBCHEM_CACTVS_HBOND_DONOR>
1

> <PUBCHEM_CACTVS_ROTATABLE_BOND>
0

> <PUBCHEM_CACTVS_SUBSKEYS>
AAADcYBgIAAAAAAAAAAAAAAAAAAAAAAAAAAwAAAAAAAAAAABAAAAGgAACAAACASAkAAwBoAAAgCAACBCAAACAAAgIAAIiAAGCIgIJiKCERKAcAAkwBEImAeAQAAAAAAAAAAAAAAAAAAAAAAAAAAAAAAAAA==

> <PUBCHEM_IUPAC_OPENEYE_NAME>
phenol

> <PUBCHEM_IUPAC_CAS_NAME>
phenol

> <PUBCHEM_IUPAC_NAME>
phenol

> <PUBCHEM_IUPAC_SYSTEMATIC_NAME>
phenol

> <PUBCHEM_IUPAC_TRADITIONAL_NAME>
phenol

> <PUBCHEM_IUPAC_INCHI>
InChI=1S/C6H6O/c7-6-4-2-1-3-5-6/h1-5,7H

> <PUBCHEM_IUPAC_INCHIKEY>
ISWSIDIOOBJBQZ-UHFFFAOYSA-N

> <PUBCHEM_XLOGP3>
1.5

> <PUBCHEM_EXACT_MASS>
94.042

> <PUBCHEM_MOLECULAR_FORMULA>
C6H6O

> <PUBCHEM_MOLECULAR_WEIGHT>
94.113

> <PUBCHEM_OPENEYE_CAN_SMILES>
C1=CC=C(C=C1)O

> <PUBCHEM_OPENEYE_ISO_SMILES>
C1=CC=C(C=C1)O

> <PUBCHEM_CACTVS_TPSA>
20.2

> <PUBCHEM_MONOISOTOPIC_WEIGHT>
94.042

> <PUBCHEM_TOTAL_CHARGE>
0

> <PUBCHEM_HEAVY_ATOM_COUNT>
7

> <PUBCHEM_ATOM_DEF_STEREO_COUNT>
0

> <PUBCHEM_ATOM_UDEF_STEREO_COUNT>
0

> <PUBCHEM_BOND_DEF_STEREO_COUNT>
0

> <PUBCHEM_BOND_UDEF_STEREO_COUNT>
0

> <PUBCHEM_ISOTOPIC_ATOM_COUNT>
0

> <PUBCHEM_COMPONENT_COUNT>
1

> <PUBCHEM_CACTVS_TAUTO_COUNT>
-1

> <PUBCHEM_COORDINATE_TYPE>
1
5
255

> <PUBCHEM_BONDANNOTATIONS>
2  3  8
2  4  8
3  5  8
4  6  8
5  7  8
6  7  8

$$$$
10448938
  -OEChem-02061913482D

 24 27  0     1  0  0  0  0  0999 V2000
    5.5320    0.2350    0.0000 O   0  0  0  0  0  0  0  0  0  0  0  0
    2.8680   -1.2408    0.0000 O   0  0  0  0  0  0  0  0  0  0  0  0
    7.9557    1.4507    0.0000 N   0  0  3  0  0  0  0  0  0  0  0  0
    6.3981   -3.2650    0.0000 N   0  0  0  0  0  0  0  0  0  0  0  0
    8.8217    1.9507    0.0000 C   0  0  1  0  0  0  0  0  0  0  0  0
    7.2641    0.2350    0.0000 C   0  0  1  0  0  0  0  0  0  0  0  0
    8.2300   -0.0238    0.0000 C   0  0  0  0  0  0  0  0  0  0  0  0
   10.2110    1.3986    0.0000 C   0  0  2  0  0  0  0  0  0  0  0  0
    8.1923    3.2997    0.0000 C   0  0  0  0  0  0  0  0  0  0  0  0
    9.7884    0.4923    0.0000 C   0  0  0  0  0  0  0  0  0  0  0  0
    7.3263    2.7997    0.0000 C   0  0  0  0  0  0  0  0  0  0  0  0
    6.3981   -0.2650    0.0000 C   0  0  2  0  0  0  0  0  0  0  0  0
   11.1507    1.7407    0.0000 C   0  0  0  0  0  0  0  0  0  0  0  0
    6.3981   -1.2650    0.0000 C   0  0  0  0  0  0  0  0  0  0  0  0
   11.9167    1.0979    0.0000 C   0  0  0  0  0  0  0  0  0  0  0  0
    5.5320   -1.7650    0.0000 C   0  0  0  0  0  0  0  0  0  0  0  0
    7.2641   -1.7650    0.0000 C   0  0  0  0  0  0  0  0  0  0  0  0
    5.5320   -2.7650    0.0000 C   0  0  0  0  0  0  0  0  0  0  0  0
    4.6381   -1.2303    0.0000 C   0  0  0  0  0  0  0  0  0  0  0  0
    7.2641   -2.7650    0.0000 C   0  0  0  0  0  0  0  0  0  0  0  0
    4.6381   -3.2997    0.0000 C   0  0  0  0  0  0  0  0  0  0  0  0
    3.7320   -1.7442    0.0000 C   0  0  0  0  0  0  0  0  0  0  0  0
    3.7320   -2.7858    0.0000 C   0  0  0  0  0  0  0  0  0  0  0  0
    2.0000   -1.7375    0.0000 C   0  0  0  0  0  0  0  0  0  0  0  0
 12  1  1  6  0  0  0
  2 22  1  0  0  0  0
  2 24  1  0  0  0  0
  3  6  1  0  0  0  0
  3 10  1  0  0  0  0
  3 11  1  0  0  0  0
  4 18  2  0  0  0  0
  4 20  1  0  0  0  0
  5  7  1  0  0  0  0
  5  8  1  0  0  0  0
  5  9  1  0  0  0  0
  6  7  1  0  0  0  0
  6 12  1  0  0  0  0
  8 10  1  0  0  0  0
  8 13  1  1  0  0  0
  9 11  1  0  0  0  0
 12 14  1  0  0  0  0
 13 15  2  0  0  0  0
 14 16  2  0  0  0  0
 14 17  1  0  0  0  0
 16 18  1  0  0  0  0
 16 19  1  0  0  0  0
 17 20  2  0  0  0  0
 18 21  1  0  0  0  0
 19 22  2  0  0  0  0
 21 23  2  0  0  0  0
 22 23  1  0  0  0  0
M  END
> <PUBCHEM_COMPOUND_CID>
10448938

> <PUBCHEM_COMPOUND_CANONICALIZED>
1

> <PUBCHEM_CACTVS_COMPLEXITY>
457

> <PUBCHEM_CACTVS_HBOND_ACCEPTOR>
4

> <PUBCHEM_CACTVS_HBOND_DONOR>
1

> <PUBCHEM_CACTVS_ROTATABLE_BOND>
4

> <PUBCHEM_CACTVS_SUBSKEYS>
AAADceB7MAAAAAAAAAAAAAAAAAAAAAAAAAA8WLFiAAAAAACx8AAAHgAACAAADTzhngY+xvMIFgCgAzRnRACCiCAxIiAI2CA+bJgONuLEsZuEcChkwBHY+Aew4PwOgEABAAACAAAAgAIAAAQAAAAAAAAAAA==

> <PUBCHEM_IUPAC_OPENEYE_NAME>
(~{S})-(6-methoxy-4-quinolyl)-[(2~{S},4~{S},5~{R})-5-vinylquinuclidin-2-yl]methanol

> <PUBCHEM_IUPAC_CAS_NAME>
(~{S})-[(2~{S},4~{S},5~{R})-5-ethenyl-1-azabicyclo[2.2.2]octan-2-yl]-(6-methoxy-4-quinolinyl)methanol

> <PUBCHEM_IUPAC_NAME>
(~{S})-[(2~{S},4~{S},5~{R})-5-ethenyl-1-azabicyclo[2.2.2]octan-2-yl]-(6-methoxyquinolin-4-yl)methanol

> <PUBCHEM_IUPAC_SYSTEMATIC_NAME>
(~{S})-[(2~{S},4~{S},5~{R})-5-ethenyl-1-azabicyclo[2.2.2]octan-2-yl]-(6-methoxyquinolin-4-yl)methanol

> <PUBCHEM_IUPAC_TRADITIONAL_NAME>
(~{S})-(6-methoxy-4-quinolyl)-[(2~{S},4~{S},5~{R})-5-vinylquinuclidin-2-yl]methanol

> <PUBCHEM_IUPAC_INCHI>
InChI=1S/C20H24N2O2/c1-3-13-12-22-9-7-14(13)10-19(22)20(23)16-6-8-21-18-5-4-15(24-2)11-17(16)18/h3-6,8,11,13-14,19-20,23H,1,7,9-10,12H2,2H3/t13-,14-,19-,20-/m0/s1

> <PUBCHEM_IUPAC_INCHIKEY>
LOUPRKONTZGTKE-FEBSWUBLSA-N

> <PUBCHEM_XLOGP3>
2.9

> <PUBCHEM_EXACT_MASS>
324.184

> <PUBCHEM_MOLECULAR_FORMULA>
C20H24N2O2

> <PUBCHEM_MOLECULAR_WEIGHT>
324.424

> <PUBCHEM_OPENEYE_CAN_SMILES>
COC1=CC2=C(C=CN=C2C=C1)C(C3CC4CCN3CC4C=C)O

> <PUBCHEM_OPENEYE_ISO_SMILES>
COC1=CC2=C(C=CN=C2C=C1)[C@@H]([C@@H]3C[C@@H]4CCN3C[C@@H]4C=C)O

> <PUBCHEM_CACTVS_TPSA>
45.6

> <PUBCHEM_MONOISOTOPIC_WEIGHT>
324.184

> <PUBCHEM_TOTAL_CHARGE>
0

> <PUBCHEM_HEAVY_ATOM_COUNT>
24

> <PUBCHEM_ATOM_DEF_STEREO_COUNT>
4

> <PUBCHEM_ATOM_UDEF_STEREO_COUNT>
0

> <PUBCHEM_BOND_DEF_STEREO_COUNT>
0

> <PUBCHEM_BOND_UDEF_STEREO_COUNT>
0

> <PUBCHEM_ISOTOPIC_ATOM_COUNT>
0

> <PUBCHEM_COMPONENT_COUNT>
1

> <PUBCHEM_CACTVS_TAUTO_COUNT>
-1

> <PUBCHEM_COORDINATE_TYPE>
1
5
255

> <PUBCHEM_BONDANNOTATIONS>
12  1  6
14  16  8
14  17  8
16  18  8
16  19  8
17  20  8
18  21  8
19  22  8
21  23  8
22  23  8
4  18  8
4  20  8
5  25  5
6  26  6
8  13  5

$$$$
7456
  -OEChem-02061913072D

 11 11  0     0  0  0  0  0  0999 V2000
    3.7320    1.9050    0.0000 O   0  0  0  0  0  0  0  0  0  0  0  0
    2.8660   -2.5950    0.0000 O   0  0  0  0  0  0  0  0  0  0  0  0
    2.0000    1.9050    0.0000 O   0  0  0  0  0  0  0  0  0  0  0  0
    2.8660    0.4050    0.0000 C   0  0  0  0  0  0  0  0  0  0  0  0
    2.0000   -0.0950    0.0000 C   0  0  0  0  0  0  0  0  0  0  0  0
    3.7320   -0.0950    0.0000 C   0  0  0  0  0  0  0  0  0  0  0  0
    2.0000   -1.0950    0.0000 C   0  0  0  0  0  0  0  0  0  0  0  0
    3.7320   -1.0950    0.0000 C   0  0  0  0  0  0  0  0  0  0  0  0
    2.8660   -1.5950    0.0000 C   0  0  0  0  0  0  0  0  0  0  0  0
    2.8660    1.4050    0.0000 C   0  0  0  0  0  0  0  0  0  0  0  0
    3.7320    2.9050    0.0000 C   0  0  0  0  0  0  0  0  0  0  0  0
  1 10  1  0  0  0  0
  1 11  1  0  0  0  0
  2  9  1  0  0  0  0
  3 10  2  0  0  0  0
  4  5  2  0  0  0  0
  4  6  1  0  0  0  0
  4 10  1  0  0  0  0
  5  7  1  0  0  0  0
  6  8  2  0  0  0  0
  7  9  2  0  0  0  0
  8  9  1  0  0  0  0
M  END
> <PUBCHEM_COMPOUND_CID>
7456

> <PUBCHEM_COMPOUND_CANONICALIZED>
1

> <PUBCHEM_CACTVS_COMPLEXITY>
136

> <PUBCHEM_CACTVS_HBOND_ACCEPTOR>
3

> <PUBCHEM_CACTVS_HBOND_DONOR>
1

> <PUBCHEM_CACTVS_ROTATABLE_BOND>
2

> <PUBCHEM_CACTVS_SUBSKEYS>
AAADccBwMAAAAAAAAAAAAAAAAAAAAAAAAAAwAAAAAAAAAAABAAAAGgAACAAADASAmAIyDoAABgCIAiDSCAACAAAkIAAIiAEGCMgIJjKCNRqAcQAkwBEIuYeI7CzOIAAAAAAAAABAAAAAAAAAAAAAAAAAAA==

> <PUBCHEM_IUPAC_OPENEYE_NAME>
methyl 4-hydroxybenzoate

> <PUBCHEM_IUPAC_CAS_NAME>
4-hydroxybenzoic acid methyl ester

> <PUBCHEM_IUPAC_NAME>
methyl 4-hydroxybenzoate

> <PUBCHEM_IUPAC_SYSTEMATIC_NAME>
methyl 4-oxidanylbenzoate

> <PUBCHEM_IUPAC_TRADITIONAL_NAME>
methylparaben

> <PUBCHEM_IUPAC_INCHI>
InChI=1S/C8H8O3/c1-11-8(10)6-2-4-7(9)5-3-6/h2-5,9H,1H3

> <PUBCHEM_IUPAC_INCHIKEY>
LXCFILQKKLGQFO-UHFFFAOYSA-N

> <PUBCHEM_XLOGP3>
2

> <PUBCHEM_EXACT_MASS>
152.047

> <PUBCHEM_MOLECULAR_FORMULA>
C8H8O3

> <PUBCHEM_MOLECULAR_WEIGHT>
152.149

> <PUBCHEM_OPENEYE_CAN_SMILES>
COC(=O)C1=CC=C(C=C1)O

> <PUBCHEM_OPENEYE_ISO_SMILES>
COC(=O)C1=CC=C(C=C1)O

> <PUBCHEM_CACTVS_TPSA>
46.5

> <PUBCHEM_MONOISOTOPIC_WEIGHT>
152.047

> <PUBCHEM_TOTAL_CHARGE>
0

> <PUBCHEM_HEAVY_ATOM_COUNT>
11

> <PUBCHEM_ATOM_DEF_STEREO_COUNT>
0

> <PUBCHEM_ATOM_UDEF_STEREO_COUNT>
0

> <PUBCHEM_BOND_DEF_STEREO_COUNT>
0

> <PUBCHEM_BOND_UDEF_STEREO_COUNT>
0

> <PUBCHEM_ISOTOPIC_ATOM_COUNT>
0

> <PUBCHEM_COMPONENT_COUNT>
1

> <PUBCHEM_CACTVS_TAUTO_COUNT>
-1

> <PUBCHEM_COORDINATE_TYPE>
1
5
255

> <PUBCHEM_BONDANNOTATIONS>
4  5  8
4  6  8
5  7  8
6  8  8
7  9  8
8  9  8

$$$$
241
  -OEChem-02061913062D

  6  6  0     0  0  0  0  0  0999 V2000
    2.8660    1.0000    0.0000 C   0  0  0  0  0  0  0  0  0  0  0  0
    2.0000    0.5000    0.0000 C   0  0  0  0  0  0  0  0  0  0  0  0
    3.7320    0.5000    0.0000 C   0  0  0  0  0  0  0  0  0  0  0  0
    2.0000   -0.5000    0.0000 C   0  0  0  0  0  0  0  0  0  0  0  0
    3.7320   -0.5000    0.0000 C   0  0  0  0  0  0  0  0  0  0  0  0
    2.8660   -1.0000    0.0000 C   0  0  0  0  0  0  0  0  0  0  0  0
  1  2  2  0  0  0  0
  1  3  1  0  0  0  0
  2  4  1  0  0  0  0
  3  5  2  0  0  0  0
  4  6  2  0  0  0  0
  5  6  1  0  0  0  0
M  END
> <PUBCHEM_COMPOUND_CID>
241

> <PUBCHEM_COMPOUND_CANONICALIZED>
1

> <PUBCHEM_CACTVS_COMPLEXITY>
15.5

> <PUBCHEM_CACTVS_HBOND_ACCEPTOR>
0

> <PUBCHEM_CACTVS_HBOND_DONOR>
0

> <PUBCHEM_CACTVS_ROTATABLE_BOND>
0

> <PUBCHEM_CACTVS_SUBSKEYS>
AAADcYBgAAAAAAAAAAAAAAAAAAAAAAAAAAAwAAAAAAAAAAABAAAAGAAAAAAACACAEAAwAIAAAACAACBCAAACAAAgAAAIiAAAAIgIICKAERCAIAAggAAIiAcAAAAAAAAAAAAAAAAAAAAAAAAAAAAAAAAAAA==

> <PUBCHEM_IUPAC_OPENEYE_NAME>
benzene

> <PUBCHEM_IUPAC_CAS_NAME>
benzene

> <PUBCHEM_IUPAC_NAME>
benzene

> <PUBCHEM_IUPAC_SYSTEMATIC_NAME>
benzene

> <PUBCHEM_IUPAC_TRADITIONAL_NAME>
benzene

> <PUBCHEM_IUPAC_INCHI>
InChI=1S/C6H6/c1-2-4-6-5-3-1/h1-6H

> <PUBCHEM_IUPAC_INCHIKEY>
UHOVQNZJYSORNB-UHFFFAOYSA-N

> <PUBCHEM_XLOGP3>
2.1

> <PUBCHEM_EXACT_MASS>
78.047

> <PUBCHEM_MOLECULAR_FORMULA>
C6H6

> <PUBCHEM_MOLECULAR_WEIGHT>
78.114

> <PUBCHEM_OPENEYE_CAN_SMILES>
C1=CC=CC=C1

> <PUBCHEM_OPENEYE_ISO_SMILES>
C1=CC=CC=C1

> <PUBCHEM_CACTVS_TPSA>
0

> <PUBCHEM_MONOISOTOPIC_WEIGHT>
78.047

> <PUBCHEM_TOTAL_CHARGE>
0

> <PUBCHEM_HEAVY_ATOM_COUNT>
6

> <PUBCHEM_ATOM_DEF_STEREO_COUNT>
0

> <PUBCHEM_ATOM_UDEF_STEREO_COUNT>
0

> <PUBCHEM_BOND_DEF_STEREO_COUNT>
0

> <PUBCHEM_BOND_UDEF_STEREO_COUNT>
0

> <PUBCHEM_ISOTOPIC_ATOM_COUNT>
0

> <PUBCHEM_COMPONENT_COUNT>
1

> <PUBCHEM_CACTVS_TAUTO_COUNT>
-1

> <PUBCHEM_COORDINATE_TYPE>
1
5
255

> <PUBCHEM_BONDANNOTATIONS>
1  2  8
1  3  8
2  4  8
3  5  8
4  6  8
5  6  8

$$$$
12568
  -OEChem-02061913072D

 13 13  0     0  0  0  0  0  0999 V2000
    3.7320    0.5000    0.0000 O   0  0  0  0  0  0  0  0  0  0  0  0
    3.7320    1.5000    0.0000 O   0  0  0  0  0  0  0  0  0  0  0  0
    2.0000    0.5000    0.0000 O   0  0  0  0  0  0  0  0  0  0  0  0
    5.4641    1.5000    0.0000 O   0  0  0  0  0  0  0  0  0  0  0  0
    2.8660   -1.0000    0.0000 C   0  0  0  0  0  0  0  0  0  0  0  0
    2.0000   -1.5000    0.0000 C   0  0  0  0  0  0  0  0  0  0  0  0
    3.7320   -1.5000    0.0000 C   0  0  0  0  0  0  0  0  0  0  0  0
    2.0000   -2.5000    0.0000 C   0  0  0  0  0  0  0  0  0  0  0  0
    3.7320   -2.5000    0.0000 C   0  0  0  0  0  0  0  0  0  0  0  0
    2.8660   -3.0000    0.0000 C   0  0  0  0  0  0  0  0  0  0  0  0
    2.8660    0.0000    0.0000 C   0  0  0  0  0  0  0  0  0  0  0  0
    4.5981    2.0000    0.0000 C   0  0  0  0  0  0  0  0  0  0  0  0
    4.5981    3.0000    0.0000 C   0  0  0  0  0  0  0  0  0  0  0  0
  1  2  1  0  0  0  0
  1 11  1  0  0  0  0
  2 12  1  0  0  0  0
  3 11  2  0  0  0  0
  4 12  2  0  0  0  0
  5  6  2  0  0  0  0
  5  7  1  0  0  0  0
  5 11  1  0  0  0  0
  6  8  1  0  0  0  0
  7  9  2  0  0  0  0
  8 10  2  0  0  0  0
  9 10  1  0  0  0  0
 12 13  1  0  0  0  0
M  END
> <PUBCHEM_COMPOUND_CID>
12568

> <PUBCHEM_COMPOUND_CANONICALIZED>
1

> <PUBCHEM_CACTVS_COMPLEXITY>
194

> <PUBCHEM_CACTVS_HBOND_ACCEPTOR>
4

> <PUBCHEM_CACTVS_HBOND_DONOR>
0

> <PUBCHEM_CACTVS_ROTATABLE_BOND>
4

> <PUBCHEM_CACTVS_SUBSKEYS>
AAADccBwOAAAAAAAAAAAAAAAAAAAAAAAAAAwAAAAAAAAAAABAAAAGgAABAAADACAmAAyCIAAAACIAiDSCAACAAAkAAAIiAEACMgIJjKAFRCAMQAkwAEIiYeIyCCOAAAAAAAAAAAAAAAAAAAAAAAAAAAAAA==

> <PUBCHEM_IUPAC_OPENEYE_NAME>
acetyl benzenecarboperoxoate

> <PUBCHEM_IUPAC_CAS_NAME>
benzenecarboperoxoic acid acetyl ester

> <PUBCHEM_IUPAC_NAME>
acetyl benzenecarboperoxoate

> <PUBCHEM_IUPAC_SYSTEMATIC_NAME>
ethanoyl benzenecarboperoxoate

> <PUBCHEM_IUPAC_TRADITIONAL_NAME>
benzenecarboperoxoic acid acetyl ester

> <PUBCHEM_IUPAC_INCHI>
InChI=1S/C9H8O4/c1-7(10)12-13-9(11)8-5-3-2-4-6-8/h2-6H,1H3

> <PUBCHEM_IUPAC_INCHIKEY>
PDAVOLCVHOKLEO-UHFFFAOYSA-N

> <PUBCHEM_XLOGP3_AA>
1.9

> <PUBCHEM_EXACT_MASS>
180.042

> <PUBCHEM_MOLECULAR_FORMULA>
C9H8O4

> <PUBCHEM_MOLECULAR_WEIGHT>
180.159

> <PUBCHEM_OPENEYE_CAN_SMILES>
CC(=O)OOC(=O)C1=CC=CC=C1

> <PUBCHEM_OPENEYE_ISO_SMILES>
CC(=O)OOC(=O)C1=CC=CC=C1

> <PUBCHEM_CACTVS_TPSA>
52.6

> <PUBCHEM_MONOISOTOPIC_WEIGHT>
180.042

> <PUBCHEM_TOTAL_CHARGE>
0

> <PUBCHEM_HEAVY_ATOM_COUNT>
13

> <PUBCHEM_ATOM_DEF_STEREO_COUNT>
0

> <PUBCHEM_ATOM_UDEF_STEREO_COUNT>
0

> <PUBCHEM_BOND_DEF_STEREO_COUNT>
0

> <PUBCHEM_BOND_UDEF_STEREO_COUNT>
0

> <PUBCHEM_ISOTOPIC_ATOM_COUNT>
0

> <PUBCHEM_COMPONENT_COUNT>
1

> <PUBCHEM_CACTVS_TAUTO_COUNT>
-1

> <PUBCHEM_COORDINATE_TYPE>
1
5
255

> <PUBCHEM_BONDANNOTATIONS>
5  6  8
5  7  8
6  8  8
7  9  8
8  10  8
9  10  8

$$$$
91692850
  -OEChem-02061914552D

 23 24  0     1  0  0  0  0  0999 V2000
    5.8671    0.7306    0.0000 O   0  0  0  0  0  0  0  0  0  0  0  0
    6.8671   -0.2694    0.0000 O   0  0  0  0  0  0  0  0  0  0  0  0
    5.1350   -0.2694    0.0000 O   0  0  0  0  0  0  0  0  0  0  0  0
    8.1271    1.9906    0.0000 O   0  0  0  0  0  0  0  0  0  0  0  0
    6.3671    3.2694    0.0000 O   0  0  0  0  0  0  0  0  0  0  0  0
    6.8671   -2.2694    0.0000 O   0  0  0  0  0  0  0  0  0  0  0  0
    5.1350   -3.2694    0.0000 O   0  0  0  0  0  0  0  0  0  0  0  0
    3.4030   -2.2694    0.0000 O   0  0  0  0  0  0  0  0  0  0  0  0
    8.5613    1.0907    0.0000 O   0  0  0  0  0  0  0  0  0  0  0  0
    4.3991    2.9688    0.0000 O   0  0  0  0  0  0  0  0  0  0  0  0
    2.5369   -0.7694    0.0000 O   0  0  0  0  0  0  0  0  0  0  0  0
    6.8671    0.7306    0.0000 C   0  0  3  0  0  0  0  0  0  0  0  0
    7.1761    1.6816    0.0000 C   0  0  3  0  0  0  0  0  0  0  0  0
    6.3671    2.2694    0.0000 C   0  0  3  0  0  0  0  0  0  0  0  0
    5.5580    1.6816    0.0000 C   0  0  3  0  0  0  0  0  0  0  0  0
    6.0010   -0.7694    0.0000 C   0  0  1  0  0  0  0  0  0  0  0  0
    6.0010   -1.7694    0.0000 C   0  0  1  0  0  0  0  0  0  0  0  0
    5.1350   -2.2694    0.0000 C   0  0  2  0  0  0  0  0  0  0  0  0
    4.2690   -1.7694    0.0000 C   0  0  1  0  0  0  0  0  0  0  0  0
    4.2690   -0.7694    0.0000 C   0  0  1  0  0  0  0  0  0  0  0  0
    7.8181    0.4216    0.0000 C   0  0  0  0  0  0  0  0  0  0  0  0
    4.6070    1.9906    0.0000 C   0  0  0  0  0  0  0  0  0  0  0  0
    3.4030   -0.2694    0.0000 C   0  0  0  0  0  0  0  0  0  0  0  0
  1 12  1  0  0  0  0
  1 15  1  0  0  0  0
  2 12  1  0  0  0  0
 16  2  1  6  0  0  0
  3 16  1  0  0  0  0
  3 20  1  0  0  0  0
  4 13  1  0  0  0  0
  5 14  1  0  0  0  0
 17  6  1  6  0  0  0
 18  7  1  1  0  0  0
 19  8  1  6  0  0  0
  9 21  1  0  0  0  0
 10 22  1  0  0  0  0
 11 23  1  0  0  0  0
 12 13  1  0  0  0  0
 12 21  1  0  0  0  0
 13 14  1  0  0  0  0
 14 15  1  0  0  0  0
 15 22  1  0  0  0  0
 16 17  1  0  0  0  0
 17 18  1  0  0  0  0
 18 19  1  0  0  0  0
 19 20  1  0  0  0  0
 20 23  1  1  0  0  0
M  END
> <PUBCHEM_COMPOUND_CID>
91692850

> <PUBCHEM_COMPOUND_CANONICALIZED>
1

> <PUBCHEM_CACTVS_COMPLEXITY>
395

> <PUBCHEM_CACTVS_HBOND_ACCEPTOR>
11

> <PUBCHEM_CACTVS_HBOND_DONOR>
8

> <PUBCHEM_CACTVS_ROTATABLE_BOND>
5

> <PUBCHEM_CACTVS_SUBSKEYS>
AAADceBwPAAAAAAAAAAAAAAAAAAAASAAAAAkAAAAAAAAAAAAAAAAGgAACAAACBSwgAMACAAABgAAAAAAAAAAAAAAAAAAAAAAAAAREAIAAAAiQAAFAAAHAAHAYAwAAAAAAAAAAAAAAAAAAAAAAAAAAAAAAA==

> <PUBCHEM_IUPAC_OPENEYE_NAME>
(2~{R},3~{R},4~{S},5~{S},6~{R})-2-[3,4-dihydroxy-2,5-bis(hydroxymethyl)tetrahydrofuran-2-yl]oxy-6-(hydroxymethyl)tetrahydropyran-3,4,5-triol

> <PUBCHEM_IUPAC_CAS_NAME>
(2~{R},3~{R},4~{S},5~{S},6~{R})-2-[[3,4-dihydroxy-2,5-bis(hydroxymethyl)-2-oxolanyl]oxy]-6-(hydroxymethyl)oxane-3,4,5-triol

> <PUBCHEM_IUPAC_NAME>
(2~{R},3~{R},4~{S},5~{S},6~{R})-2-[3,4-dihydroxy-2,5-bis(hydroxymethyl)oxolan-2-yl]oxy-6-(hydroxymethyl)oxane-3,4,5-triol

> <PUBCHEM_IUPAC_SYSTEMATIC_NAME>
(2~{R},3~{R},4~{S},5~{S},6~{R})-2-[2,5-bis(hydroxymethyl)-3,4-bis(oxidanyl)oxolan-2-yl]oxy-6-(hydroxymethyl)oxane-3,4,5-triol

> <PUBCHEM_IUPAC_TRADITIONAL_NAME>
(2~{R},3~{R},4~{S},5~{S},6~{R})-2-(3,4-dihydroxy-2,5-dimethylol-tetrahydrofuran-2-yl)oxy-6-methylol-tetrahydropyran-3,4,5-triol

> <PUBCHEM_IUPAC_INCHI>
InChI=1S/C12H22O11/c13-1-4-6(16)8(18)9(19)11(21-4)23-12(3-15)10(20)7(17)5(2-14)22-12/h4-11,13-20H,1-3H2/t4-,5?,6-,7?,8+,9-,10?,11-,12?/m1/s1

> <PUBCHEM_IUPAC_INCHIKEY>
CZMRCDWAGMRECN-GCGUNJLOSA-N

> <PUBCHEM_XLOGP3>
-3.7

> <PUBCHEM_EXACT_MASS>
342.116

> <PUBCHEM_MOLECULAR_FORMULA>
C12H22O11

> <PUBCHEM_MOLECULAR_WEIGHT>
342.297

> <PUBCHEM_OPENEYE_CAN_SMILES>
C(C1C(C(C(C(O1)OC2(C(C(C(O2)CO)O)O)CO)O)O)O)O

> <PUBCHEM_OPENEYE_ISO_SMILES>
C([C@@H]1[C@H]([C@@H]([C@H]([C@H](O1)OC2(C(C(C(O2)CO)O)O)CO)O)O)O)O

> <PUBCHEM_CACTVS_TPSA>
190

> <PUBCHEM_MONOISOTOPIC_WEIGHT>
342.116

> <PUBCHEM_TOTAL_CHARGE>
0

> <PUBCHEM_HEAVY_ATOM_COUNT>
23

> <PUBCHEM_ATOM_DEF_STEREO_COUNT>
5

> <PUBCHEM_ATOM_UDEF_STEREO_COUNT>
4

> <PUBCHEM_BOND_DEF_STEREO_COUNT>
0

> <PUBCHEM_BOND_UDEF_STEREO_COUNT>
0

> <PUBCHEM_ISOTOPIC_ATOM_COUNT>
0

> <PUBCHEM_COMPONENT_COUNT>
1

> <PUBCHEM_CACTVS_TAUTO_COUNT>
-1

> <PUBCHEM_COORDINATE_TYPE>
1
5
255

> <PUBCHEM_BONDANNOTATIONS>
12  21  3
15  22  3
16  2  6
20  23  5
13  4  3
14  5  3
17  6  6
18  7  5
19  8  6

$$$$
7519
  -OEChem-02061913072D

  8  8  0     0  0  0  0  0  0999 V2000
    2.8660    1.2500    0.0000 O   0  0  0  0  0  0  0  0  0  0  0  0
    2.8660    0.2500    0.0000 C   0  0  0  0  0  0  0  0  0  0  0  0
    2.0000   -0.2500    0.0000 C   0  0  0  0  0  0  0  0  0  0  0  0
    3.7320   -0.2500    0.0000 C   0  0  0  0  0  0  0  0  0  0  0  0
    2.0000   -1.2500    0.0000 C   0  0  0  0  0  0  0  0  0  0  0  0
    3.7320   -1.2500    0.0000 C   0  0  0  0  0  0  0  0  0  0  0  0
    2.8660   -1.7500    0.0000 C   0  0  0  0  0  0  0  0  0  0  0  0
    3.7320    1.7500    0.0000 C   0  0  0  0  0  0  0  0  0  0  0  0
  1  2  1  0  0  0  0
  1  8  1  0  0  0  0
  2  3  2  0  0  0  0
  2  4  1  0  0  0  0
  3  5  1  0  0  0  0
  4  6  2  0  0  0  0
  5  7  2  0  0  0  0
  6  7  1  0  0  0  0
M  END
> <PUBCHEM_COMPOUND_CID>
7519

> <PUBCHEM_COMPOUND_CANONICALIZED>
1

> <PUBCHEM_CACTVS_COMPLEXITY>
55.4

> <PUBCHEM_CACTVS_HBOND_ACCEPTOR>
1

> <PUBCHEM_CACTVS_HBOND_DONOR>
0

> <PUBCHEM_CACTVS_ROTATABLE_BOND>
1

> <PUBCHEM_CACTVS_SUBSKEYS>
AAADccBgIAAAAAAAAAAAAAAAAAAAAAAAAAAwAAAAAAAAAAABAAAAGgAAAAAACASAkAIyBoAABACAACBCAAACCAAgIAAIiAAGCIgMJiKEMRqAMCAkwBEIqAeAQAAAAAAAAAAAAAAAAAAAAAAAAAAAAAAAAA==

> <PUBCHEM_IUPAC_OPENEYE_NAME>
anisole

> <PUBCHEM_IUPAC_CAS_NAME>
methoxybenzene

> <PUBCHEM_IUPAC_NAME>
anisole

> <PUBCHEM_IUPAC_SYSTEMATIC_NAME>
methoxybenzene

> <PUBCHEM_IUPAC_TRADITIONAL_NAME>
anisole

> <PUBCHEM_IUPAC_INCHI>
InChI=1S/C7H8O/c1-8-7-5-3-2-4-6-7/h2-6H,1H3

> <PUBCHEM_IUPAC_INCHIKEY>
RDOXTESZEPMUJZ-UHFFFAOYSA-N

> <PUBCHEM_XLOGP3>
2.1

> <PUBCHEM_EXACT_MASS>
108.058

> <PUBCHEM_MOLECULAR_FORMULA>
C7H8O

> <PUBCHEM_MOLECULAR_WEIGHT>
108.14

> <PUBCHEM_OPENEYE_CAN_SMILES>
COC1=CC=CC=C1

> <PUBCHEM_OPENEYE_ISO_SMILES>
COC1=CC=CC=C1

> <PUBCHEM_CACTVS_TPSA>
9.2

> <PUBCHEM_MONOISOTOPIC_WEIGHT>
108.058

> <PUBCHEM_TOTAL_CHARGE>
0

> <PUBCHEM_HEAVY_ATOM_COUNT>
8

> <PUBCHEM_ATOM_DEF_STEREO_COUNT>
0

> <PUBCHEM_ATOM_UDEF_STEREO_COUNT>
0

> <PUBCHEM_BOND_DEF_STEREO_COUNT>
0

> <PUBCHEM_BOND_UDEF_STEREO_COUNT>
0

> <PUBCHEM_ISOTOPIC_ATOM_COUNT>
0

> <PUBCHEM_COMPONENT_COUNT>
1

> <PUBCHEM_CACTVS_TAUTO_COUNT>
-1

> <PUBCHEM_COORDINATE_TYPE>
1
5
255

> <PUBCHEM_BONDANNOTATIONS>
2  3  8
2  4  8
3  5  8
4  6  8
5  7  8
6  7  8

$$$$
7652
  -OEChem-02061913072D

 18 19  0     0  0  0  0  0  0999 V2000
    3.7320   -0.5000    0.0000 O   0  0  0  0  0  0  0  0  0  0  0  0
    2.8660    1.0000    0.0000 O   0  0  0  0  0  0  0  0  0  0  0  0
    2.8660   -2.0000    0.0000 C   0  0  0  0  0  0  0  0  0  0  0  0
    2.8660   -1.0000    0.0000 C   0  0  0  0  0  0  0  0  0  0  0  0
    2.0000   -2.5000    0.0000 C   0  0  0  0  0  0  0  0  0  0  0  0
    3.7320   -2.5000    0.0000 C   0  0  0  0  0  0  0  0  0  0  0  0
    5.4641    2.5000    0.0000 C   0  0  0  0  0  0  0  0  0  0  0  0
    2.0000   -3.5000    0.0000 C   0  0  0  0  0  0  0  0  0  0  0  0
    3.7320   -3.5000    0.0000 C   0  0  0  0  0  0  0  0  0  0  0  0
    2.8660   -4.0000    0.0000 C   0  0  0  0  0  0  0  0  0  0  0  0
    4.5981    2.0000    0.0000 C   0  0  0  0  0  0  0  0  0  0  0  0
    5.4641    3.5000    0.0000 C   0  0  0  0  0  0  0  0  0  0  0  0
    6.3301    2.0000    0.0000 C   0  0  0  0  0  0  0  0  0  0  0  0
    4.5981    1.0000    0.0000 C   0  0  0  0  0  0  0  0  0  0  0  0
    3.7320    0.5000    0.0000 C   0  0  0  0  0  0  0  0  0  0  0  0
    6.3301    4.0000    0.0000 C   0  0  0  0  0  0  0  0  0  0  0  0
    7.1962    2.5000    0.0000 C   0  0  0  0  0  0  0  0  0  0  0  0
    7.1962    3.5000    0.0000 C   0  0  0  0  0  0  0  0  0  0  0  0
  1  4  1  0  0  0  0
  1 15  1  0  0  0  0
  2 15  2  0  0  0  0
  3  4  1  0  0  0  0
  3  5  2  0  0  0  0
  3  6  1  0  0  0  0
  5  8  1  0  0  0  0
  6  9  2  0  0  0  0
  7 11  1  0  0  0  0
  7 12  2  0  0  0  0
  7 13  1  0  0  0  0
  8 10  2  0  0  0  0
  9 10  1  0  0  0  0
 11 14  2  3  0  0  0
 12 16  1  0  0  0  0
 13 17  2  0  0  0  0
 14 15  1  0  0  0  0
 16 18  2  0  0  0  0
 17 18  1  0  0  0  0
M  END
> <PUBCHEM_COMPOUND_CID>
7652

> <PUBCHEM_COMPOUND_CANONICALIZED>
1

> <PUBCHEM_CACTVS_COMPLEXITY>
271

> <PUBCHEM_CACTVS_HBOND_ACCEPTOR>
2

> <PUBCHEM_CACTVS_HBOND_DONOR>
0

> <PUBCHEM_CACTVS_ROTATABLE_BOND>
5

> <PUBCHEM_CACTVS_SUBSKEYS>
AAADccB4MAAAAAAAAAAAAAAAAAAAAAAAAAAwYAAAAAAAAAABQAAAGgAAAAAADACgmAIwCIAABACIAiDSCAACAAAgAAAIiAAACMgIJiKAMRiCMAAkwAEIqYeAwCAOAAAAAAAAAAAAAAAAAAAAAAAAAAAAAA==

> <PUBCHEM_IUPAC_OPENEYE_NAME>
benzyl 3-phenylprop-2-enoate

> <PUBCHEM_IUPAC_CAS_NAME>
3-phenyl-2-propenoic acid (phenylmethyl) ester

> <PUBCHEM_IUPAC_NAME>
benzyl 3-phenylprop-2-enoate

> <PUBCHEM_IUPAC_SYSTEMATIC_NAME>
(phenylmethyl) 3-phenylprop-2-enoate

> <PUBCHEM_IUPAC_TRADITIONAL_NAME>
3-phenylacrylic acid benzyl ester

> <PUBCHEM_IUPAC_INCHI>
InChI=1S/C16H14O2/c17-16(12-11-14-7-3-1-4-8-14)18-13-15-9-5-2-6-10-15/h1-12H,13H2

> <PUBCHEM_IUPAC_INCHIKEY>
NGHOLYJTSCBCGC-UHFFFAOYSA-N

> <PUBCHEM_XLOGP3>
3.8

> <PUBCHEM_EXACT_MASS>
238.099

> <PUBCHEM_MOLECULAR_FORMULA>
C16H14O2

> <PUBCHEM_MOLECULAR_WEIGHT>
238.286

> <PUBCHEM_OPENEYE_CAN_SMILES>
C1=CC=C(C=C1)COC(=O)C=CC2=CC=CC=C2

> <PUBCHEM_OPENEYE_ISO_SMILES>
C1=CC=C(C=C1)COC(=O)C=CC2=CC=CC=C2

> <PUBCHEM_CACTVS_TPSA>
26.3

> <PUBCHEM_MONOISOTOPIC_WEIGHT>
238.099

> <PUBCHEM_TOTAL_CHARGE>
0

> <PUBCHEM_HEAVY_ATOM_COUNT>
18

> <PUBCHEM_ATOM_DEF_STEREO_COUNT>
0

> <PUBCHEM_ATOM_UDEF_STEREO_COUNT>
0

> <PUBCHEM_BOND_DEF_STEREO_COUNT>
0

> <PUBCHEM_BOND_UDEF_STEREO_COUNT>
1

> <PUBCHEM_ISOTOPIC_ATOM_COUNT>
0

> <PUBCHEM_COMPONENT_COUNT>
1

> <PUBCHEM_CACTVS_TAUTO_COUNT>
-1

> <PUBCHEM_COORDINATE_TYPE>
1
5
255

> <PUBCHEM_BONDANNOTATIONS>
11  14  1
12  16  8
13  17  8
16  18  8
17  18  8
3  5  8
3  6  8
5  8  8
6  9  8
7  12  8
7  13  8
8  10  8
9  10  8

$$$$
16129878
  -OEChem-02061913552D

122132  0     1  0  0  0  0  0999 V2000
   12.9292    1.0000    0.0000 O   0  0  0  0  0  0  0  0  0  0  0  0
   12.9292   -2.0000    0.0000 O   0  0  0  0  0  0  0  0  0  0  0  0
   11.1972   -1.0000    0.0000 O   0  0  0  0  0  0  0  0  0  0  0  0
   14.6613   -1.0000    0.0000 O   0  0  0  0  0  0  0  0  0  0  0  0
   14.6613    1.0000    0.0000 O   0  0  0  0  0  0  0  0  0  0  0  0
   11.1972    2.0000    0.0000 O   0  0  0  0  0  0  0  0  0  0  0  0
   11.1972   -2.0000    0.0000 O   0  0  0  0  0  0  0  0  0  0  0  0
   10.3312    0.5000    0.0000 O   0  0  0  0  0  0  0  0  0  0  0  0
   15.5273    0.5000    0.0000 O   0  0  0  0  0  0  0  0  0  0  0  0
   13.7953    2.5000    0.0000 O   0  0  0  0  0  0  0  0  0  0  0  0
    9.4651    2.0000    0.0000 O   0  0  0  0  0  0  0  0  0  0  0  0
   10.3312   -5.5000    0.0000 O   0  0  0  0  0  0  0  0  0  0  0  0
    6.8671   -0.5000    0.0000 O   0  0  0  0  0  0  0  0  0  0  0  0
   17.2594   -3.5000    0.0000 O   0  0  0  0  0  0  0  0  0  0  0  0
   13.7953   -5.5000    0.0000 O   0  0  0  0  0  0  0  0  0  0  0  0
    8.5991   -3.5000    0.0000 O   0  0  0  0  0  0  0  0  0  0  0  0
   18.9914   -0.5000    0.0000 O   0  0  0  0  0  0  0  0  0  0  0  0
   18.1254    2.0000    0.0000 O   0  0  0  0  0  0  0  0  0  0  0  0
   12.0632   -6.5000    0.0000 O   0  0  0  0  0  0  0  0  0  0  0  0
    6.8671   -2.5000    0.0000 O   0  0  0  0  0  0  0  0  0  0  0  0
   16.3933    5.0000    0.0000 O   0  0  0  0  0  0  0  0  0  0  0  0
   18.9914   -2.5000    0.0000 O   0  0  0  0  0  0  0  0  0  0  0  0
   18.1254    4.0000    0.0000 O   0  0  0  0  0  0  0  0  0  0  0  0
   12.0632    5.5000    0.0000 O   0  0  0  0  0  0  0  0  0  0  0  0
    8.5991    5.5000    0.0000 O   0  0  0  0  0  0  0  0  0  0  0  0
   10.3312    6.5000    0.0000 O   0  0  0  0  0  0  0  0  0  0  0  0
   11.1972   -7.0000    0.0000 O   0  0  0  0  0  0  0  0  0  0  0  0
    6.0010   -2.0000    0.0000 O   0  0  0  0  0  0  0  0  0  0  0  0
   18.9914   -3.5000    0.0000 O   0  0  0  0  0  0  0  0  0  0  0  0
   18.9914    3.5000    0.0000 O   0  0  0  0  0  0  0  0  0  0  0  0
   11.1972    7.0000    0.0000 O   0  0  0  0  0  0  0  0  0  0  0  0
    6.8671   -6.5000    0.0000 O   0  0  0  0  0  0  0  0  0  0  0  0
    8.5991   -9.5000    0.0000 O   0  0  0  0  0  0  0  0  0  0  0  0
    4.2690    2.0000    0.0000 O   0  0  0  0  0  0  0  0  0  0  0  0
    2.5369   -1.0000    0.0000 O   0  0  0  0  0  0  0  0  0  0  0  0
   19.8574   -7.0000    0.0000 O   0  0  0  0  0  0  0  0  0  0  0  0
   16.3933   -7.0000    0.0000 O   0  0  0  0  0  0  0  0  0  0  0  0
    6.8671   -8.5000    0.0000 O   0  0  0  0  0  0  0  0  0  0  0  0
    2.5369    1.0000    0.0000 O   0  0  0  0  0  0  0  0  0  0  0  0
   22.4555    2.5000    0.0000 O   0  0  0  0  0  0  0  0  0  0  0  0
   20.7235   -0.5000    0.0000 O   0  0  0  0  0  0  0  0  0  0  0  0
   18.1254   -8.0000    0.0000 O   0  0  0  0  0  0  0  0  0  0  0  0
   22.4555    0.5000    0.0000 O   0  0  0  0  0  0  0  0  0  0  0  0
   15.5273    6.5000    0.0000 O   0  0  0  0  0  0  0  0  0  0  0  0
   13.7953    9.5000    0.0000 O   0  0  0  0  0  0  0  0  0  0  0  0
   15.5273    8.5000    0.0000 O   0  0  0  0  0  0  0  0  0  0  0  0
   12.9292   -1.0000    0.0000 C   0  0  3  0  0  0  0  0  0  0  0  0
   12.0632   -0.5000    0.0000 C   0  0  3  0  0  0  0  0  0  0  0  0
   13.7953   -0.5000    0.0000 C   0  0  3  0  0  0  0  0  0  0  0  0
   12.0632    0.5000    0.0000 C   0  0  3  0  0  0  0  0  0  0  0  0
   13.7953    0.5000    0.0000 C   0  0  3  0  0  0  0  0  0  0  0  0
   11.1972    1.0000    0.0000 C   0  0  0  0  0  0  0  0  0  0  0  0
   12.0632   -2.5000    0.0000 C   0  0  0  0  0  0  0  0  0  0  0  0
   10.3312   -0.5000    0.0000 C   0  0  0  0  0  0  0  0  0  0  0  0
   15.5273   -0.5000    0.0000 C   0  0  0  0  0  0  0  0  0  0  0  0
   14.6613    2.0000    0.0000 C   0  0  0  0  0  0  0  0  0  0  0  0
   12.0632   -3.5000    0.0000 C   0  0  0  0  0  0  0  0  0  0  0  0
    9.4651   -1.0000    0.0000 C   0  0  0  0  0  0  0  0  0  0  0  0
   16.3933   -1.0000    0.0000 C   0  0  0  0  0  0  0  0  0  0  0  0
   10.3312    2.5000    0.0000 C   0  0  0  0  0  0  0  0  0  0  0  0
   15.5273    2.5000    0.0000 C   0  0  0  0  0  0  0  0  0  0  0  0
   10.3312    3.5000    0.0000 C   0  0  0  0  0  0  0  0  0  0  0  0
   11.1972   -4.0000    0.0000 C   0  0  0  0  0  0  0  0  0  0  0  0
    8.5991   -0.5000    0.0000 C   0  0  0  0  0  0  0  0  0  0  0  0
   12.9292   -4.0000    0.0000 C   0  0  0  0  0  0  0  0  0  0  0  0
    9.4651   -2.0000    0.0000 C   0  0  0  0  0  0  0  0  0  0  0  0
   16.3933   -2.0000    0.0000 C   0  0  0  0  0  0  0  0  0  0  0  0
   17.2594   -0.5000    0.0000 C   0  0  0  0  0  0  0  0  0  0  0  0
   16.3933    2.0000    0.0000 C   0  0  0  0  0  0  0  0  0  0  0  0
   15.5273    3.5000    0.0000 C   0  0  0  0  0  0  0  0  0  0  0  0
   11.1972   -5.0000    0.0000 C   0  0  0  0  0  0  0  0  0  0  0  0
    7.7331   -1.0000    0.0000 C   0  0  0  0  0  0  0  0  0  0  0  0
   12.9292   -5.0000    0.0000 C   0  0  0  0  0  0  0  0  0  0  0  0
    8.5991   -2.5000    0.0000 C   0  0  0  0  0  0  0  0  0  0  0  0
   17.2594   -2.5000    0.0000 C   0  0  0  0  0  0  0  0  0  0  0  0
   18.1254   -1.0000    0.0000 C   0  0  0  0  0  0  0  0  0  0  0  0
   11.1972    4.0000    0.0000 C   0  0  0  0  0  0  0  0  0  0  0  0
    9.4651    4.0000    0.0000 C   0  0  0  0  0  0  0  0  0  0  0  0
   12.0632   -5.5000    0.0000 C   0  0  0  0  0  0  0  0  0  0  0  0
    7.7331   -2.0000    0.0000 C   0  0  0  0  0  0  0  0  0  0  0  0
   17.2594    2.5000    0.0000 C   0  0  0  0  0  0  0  0  0  0  0  0
   16.3933    4.0000    0.0000 C   0  0  0  0  0  0  0  0  0  0  0  0
   18.1254   -2.0000    0.0000 C   0  0  0  0  0  0  0  0  0  0  0  0
   17.2594    3.5000    0.0000 C   0  0  0  0  0  0  0  0  0  0  0  0
   11.1972    5.0000    0.0000 C   0  0  0  0  0  0  0  0  0  0  0  0
    9.4651    5.0000    0.0000 C   0  0  0  0  0  0  0  0  0  0  0  0
   10.3312    5.5000    0.0000 C   0  0  0  0  0  0  0  0  0  0  0  0
   10.3312   -6.5000    0.0000 C   0  0  0  0  0  0  0  0  0  0  0  0
    6.0010   -1.0000    0.0000 C   0  0  0  0  0  0  0  0  0  0  0  0
   18.1254   -4.0000    0.0000 C   0  0  0  0  0  0  0  0  0  0  0  0
   18.9914    2.5000    0.0000 C   0  0  0  0  0  0  0  0  0  0  0  0
    9.4651   -7.0000    0.0000 C   0  0  0  0  0  0  0  0  0  0  0  0
    5.1350   -0.5000    0.0000 C   0  0  0  0  0  0  0  0  0  0  0  0
   12.0632    6.5000    0.0000 C   0  0  0  0  0  0  0  0  0  0  0  0
   18.1254   -5.0000    0.0000 C   0  0  0  0  0  0  0  0  0  0  0  0
   19.8574    2.0000    0.0000 C   0  0  0  0  0  0  0  0  0  0  0  0
   12.9292    7.0000    0.0000 C   0  0  0  0  0  0  0  0  0  0  0  0
    9.4651   -8.0000    0.0000 C   0  0  0  0  0  0  0  0  0  0  0  0
    8.5991   -6.5000    0.0000 C   0  0  0  0  0  0  0  0  0  0  0  0
    4.2690   -1.0000    0.0000 C   0  0  0  0  0  0  0  0  0  0  0  0
    5.1350    0.5000    0.0000 C   0  0  0  0  0  0  0  0  0  0  0  0
   17.2594   -5.5000    0.0000 C   0  0  0  0  0  0  0  0  0  0  0  0
   18.9914   -5.5000    0.0000 C   0  0  0  0  0  0  0  0  0  0  0  0
   19.8574    1.0000    0.0000 C   0  0  0  0  0  0  0  0  0  0  0  0
   20.7235    2.5000    0.0000 C   0  0  0  0  0  0  0  0  0  0  0  0
    7.7331   -7.0000    0.0000 C   0  0  0  0  0  0  0  0  0  0  0  0
    8.5991   -8.5000    0.0000 C   0  0  0  0  0  0  0  0  0  0  0  0
    4.2690    1.0000    0.0000 C   0  0  0  0  0  0  0  0  0  0  0  0
    3.4030   -0.5000    0.0000 C   0  0  0  0  0  0  0  0  0  0  0  0
   18.9914   -6.5000    0.0000 C   0  0  0  0  0  0  0  0  0  0  0  0
   17.2594   -6.5000    0.0000 C   0  0  0  0  0  0  0  0  0  0  0  0
   12.9292    8.0000    0.0000 C   0  0  0  0  0  0  0  0  0  0  0  0
   13.7953    6.5000    0.0000 C   0  0  0  0  0  0  0  0  0  0  0  0
    7.7331   -8.0000    0.0000 C   0  0  0  0  0  0  0  0  0  0  0  0
    3.4030    0.5000    0.0000 C   0  0  0  0  0  0  0  0  0  0  0  0
   21.5895    2.0000    0.0000 C   0  0  0  0  0  0  0  0  0  0  0  0
   20.7235    0.5000    0.0000 C   0  0  0  0  0  0  0  0  0  0  0  0
   18.1254   -7.0000    0.0000 C   0  0  0  0  0  0  0  0  0  0  0  0
   21.5895    1.0000    0.0000 C   0  0  0  0  0  0  0  0  0  0  0  0
   14.6613    7.0000    0.0000 C   0  0  0  0  0  0  0  0  0  0  0  0
   13.7953    8.5000    0.0000 C   0  0  0  0  0  0  0  0  0  0  0  0
   14.6613    8.0000    0.0000 C   0  0  0  0  0  0  0  0  0  0  0  0
  1 50  1  0  0  0  0
  1 51  1  0  0  0  0
  2 47  1  0  0  0  0
  2 53  1  0  0  0  0
  3 48  1  0  0  0  0
  3 54  1  0  0  0  0
  4 49  1  0  0  0  0
  4 55  1  0  0  0  0
  5 51  1  0  0  0  0
  5 56  1  0  0  0  0
  6 52  1  0  0  0  0
  6 60  1  0  0  0  0
  7 53  2  0  0  0  0
  8 54  2  0  0  0  0
  9 55  2  0  0  0  0
 10 56  2  0  0  0  0
 11 60  2  0  0  0  0
 12 71  1  0  0  0  0
 12 88  1  0  0  0  0
 13 72  1  0  0  0  0
 13 89  1  0  0  0  0
 14 75  1  0  0  0  0
 14 90  1  0  0  0  0
 15 73  1  0  0  0  0
 16 74  1  0  0  0  0
 17 76  1  0  0  0  0
 18 81  1  0  0  0  0
 18 91  1  0  0  0  0
 19 79  1  0  0  0  0
 20 80  1  0  0  0  0
 21 82  1  0  0  0  0
 22 83  1  0  0  0  0
 23 84  1  0  0  0  0
 24 85  1  0  0  0  0
 24 94  1  0  0  0  0
 25 86  1  0  0  0  0
 26 87  1  0  0  0  0
 27 88  2  0  0  0  0
 28 89  2  0  0  0  0
 29 90  2  0  0  0  0
 30 91  2  0  0  0  0
 31 94  2  0  0  0  0
 32106  1  0  0  0  0
 33107  1  0  0  0  0
 34108  1  0  0  0  0
 35109  1  0  0  0  0
 36110  1  0  0  0  0
 37111  1  0  0  0  0
 38114  1  0  0  0  0
 39115  1  0  0  0  0
 40116  1  0  0  0  0
 41117  1  0  0  0  0
 42118  1  0  0  0  0
 43119  1  0  0  0  0
 44120  1  0  0  0  0
 45121  1  0  0  0  0
 46122  1  0  0  0  0
 47 48  1  0  0  0  0
 47 49  1  0  0  0  0
 48 50  1  0  0  0  0
 49 51  1  0  0  0  0
 50 52  1  0  0  0  0
 53 57  1  0  0  0  0
 54 58  1  0  0  0  0
 55 59  1  0  0  0  0
 56 61  1  0  0  0  0
 57 63  1  0  0  0  0
 57 65  2  0  0  0  0
 58 64  1  0  0  0  0
 58 66  2  0  0  0  0
 59 67  1  0  0  0  0
 59 68  2  0  0  0  0
 60 62  1  0  0  0  0
 61 69  1  0  0  0  0
 61 70  2  0  0  0  0
 62 77  1  0  0  0  0
 62 78  2  0  0  0  0
 63 71  2  0  0  0  0
 64 72  2  0  0  0  0
 65 73  1  0  0  0  0
 66 74  1  0  0  0  0
 67 75  2  0  0  0  0
 68 76  1  0  0  0  0
 69 81  2  0  0  0  0
 70 82  1  0  0  0  0
 71 79  1  0  0  0  0
 72 80  1  0  0  0  0
 73 79  2  0  0  0  0
 74 80  2  0  0  0  0
 75 83  1  0  0  0  0
 76 83  2  0  0  0  0
 77 85  2  0  0  0  0
 78 86  1  0  0  0  0
 81 84  1  0  0  0  0
 82 84  2  0  0  0  0
 85 87  1  0  0  0  0
 86 87  2  0  0  0  0
 88 92  1  0  0  0  0
 89 93  1  0  0  0  0
 90 95  1  0  0  0  0
 91 96  1  0  0  0  0
 92 98  2  0  0  0  0
 92 99  1  0  0  0  0
 93100  2  0  0  0  0
 93101  1  0  0  0  0
 94 97  1  0  0  0  0
 95102  2  0  0  0  0
 95103  1  0  0  0  0
 96104  2  0  0  0  0
 96105  1  0  0  0  0
 97112  2  0  0  0  0
 97113  1  0  0  0  0
 98107  1  0  0  0  0
 99106  2  0  0  0  0
100109  1  0  0  0  0
101108  2  0  0  0  0
102111  1  0  0  0  0
103110  2  0  0  0  0
104117  1  0  0  0  0
105116  2  0  0  0  0
106114  1  0  0  0  0
107114  2  0  0  0  0
108115  1  0  0  0  0
109115  2  0  0  0  0
110118  1  0  0  0  0
111118  2  0  0  0  0
112121  1  0  0  0  0
113120  2  0  0  0  0
116119  1  0  0  0  0
117119  2  0  0  0  0
120122  1  0  0  0  0
121122  2  0  0  0  0
M  END
> <PUBCHEM_COMPOUND_CID>
16129878

> <PUBCHEM_COMPOUND_CANONICALIZED>
1

> <PUBCHEM_CACTVS_COMPLEXITY>
3570

> <PUBCHEM_CACTVS_HBOND_ACCEPTOR>
46

> <PUBCHEM_CACTVS_HBOND_DONOR>
25

> <PUBCHEM_CACTVS_ROTATABLE_BOND>
31

> <PUBCHEM_CACTVS_SUBSKEYS>
AAADcfB8PgAAAAAAAAAAAAAAAAAAAAAAAAA0YMGDAAAAAAABVAAAGgAACAAADBSwmAMwDoAABgCIAiDSCAACCAAkIAAAiAEGiMgdJzKGNRqieyOlwBUPuYfK7DzOIAABCAAAQABAAAIQAACAAAAAAAAAAA==

> <PUBCHEM_IUPAC_OPENEYE_NAME>
[2,3-dihydroxy-5-[[3,4,5,6-tetrakis[[3,4-dihydroxy-5-(3,4,5-trihydroxybenzoyl)oxy-benzoyl]oxy]tetrahydropyran-2-yl]methoxycarbonyl]phenyl] 3,4,5-trihydroxybenzoate

> <PUBCHEM_IUPAC_CAS_NAME>
3,4,5-trihydroxybenzoic acid [2,3-dihydroxy-5-[oxo-[[3,4,5,6-tetrakis[[3,4-dihydroxy-5-[oxo-(3,4,5-trihydroxyphenyl)methoxy]phenyl]-oxomethoxy]-2-oxanyl]methoxy]methyl]phenyl] ester

> <PUBCHEM_IUPAC_NAME>
[2,3-dihydroxy-5-[[3,4,5,6-tetrakis[[3,4-dihydroxy-5-(3,4,5-trihydroxybenzoyl)oxybenzoyl]oxy]oxan-2-yl]methoxycarbonyl]phenyl] 3,4,5-trihydroxybenzoate

> <PUBCHEM_IUPAC_SYSTEMATIC_NAME>
[2,3-bis(oxidanyl)-5-[[3,4,5,6-tetrakis[[3,4-bis(oxidanyl)-5-[3,4,5-tris(oxidanyl)phenyl]carbonyloxy-phenyl]carbonyloxy]oxan-2-yl]methoxycarbonyl]phenyl] 3,4,5-tris(oxidanyl)benzoate

> <PUBCHEM_IUPAC_TRADITIONAL_NAME>
3,4,5-trihydroxybenzoic acid [2,3-dihydroxy-5-[[3,4,5,6-tetrakis[(3-galloyloxy-4,5-dihydroxy-benzoyl)oxy]tetrahydropyran-2-yl]methoxycarbonyl]phenyl] ester

> <PUBCHEM_IUPAC_INCHI>
InChI=1S/C76H52O46/c77-32-1-22(2-33(78)53(32)92)67(103)113-47-16-27(11-42(87)58(47)97)66(102)112-21-52-63(119-72(108)28-12-43(88)59(98)48(17-28)114-68(104)23-3-34(79)54(93)35(80)4-23)64(120-73(109)29-13-44(89)60(99)49(18-29)115-69(105)24-5-36(81)55(94)37(82)6-24)65(121-74(110)30-14-45(90)61(100)50(19-30)116-70(106)25-7-38(83)56(95)39(84)8-25)76(118-52)122-75(111)31-15-46(91)62(101)51(20-31)117-71(107)26-9-40(85)57(96)41(86)10-26/h1-20,52,63-65,76-101H,21H2

> <PUBCHEM_IUPAC_INCHIKEY>
LRBQNJMCXXYXIU-UHFFFAOYSA-N

> <PUBCHEM_XLOGP3_AA>
6.2

> <PUBCHEM_EXACT_MASS>
1700.173

> <PUBCHEM_MOLECULAR_FORMULA>
C76H52O46

> <PUBCHEM_MOLECULAR_WEIGHT>
1701.206

> <PUBCHEM_OPENEYE_CAN_SMILES>
C1=C(C=C(C(=C1O)O)O)C(=O)OC2=CC(=CC(=C2O)O)C(=O)OCC3C(C(C(C(O3)OC(=O)C4=CC(=C(C(=C4)OC(=O)C5=CC(=C(C(=C5)O)O)O)O)O)OC(=O)C6=CC(=C(C(=C6)OC(=O)C7=CC(=C(C(=C7)O)O)O)O)O)OC(=O)C8=CC(=C(C(=C8)OC(=O)C9=CC(=C(C(=C9)O)O)O)O)O)OC(=O)C1=CC(=C(C(=C1)OC(=O)C1=CC(=C(C(=C1)O)O)O)O)O

> <PUBCHEM_OPENEYE_ISO_SMILES>
C1=C(C=C(C(=C1O)O)O)C(=O)OC2=CC(=CC(=C2O)O)C(=O)OCC3C(C(C(C(O3)OC(=O)C4=CC(=C(C(=C4)OC(=O)C5=CC(=C(C(=C5)O)O)O)O)O)OC(=O)C6=CC(=C(C(=C6)OC(=O)C7=CC(=C(C(=C7)O)O)O)O)O)OC(=O)C8=CC(=C(C(=C8)OC(=O)C9=CC(=C(C(=C9)O)O)O)O)O)OC(=O)C1=CC(=C(C(=C1)OC(=O)C1=CC(=C(C(=C1)O)O)O)O)O

> <PUBCHEM_CACTVS_TPSA>
778

> <PUBCHEM_MONOISOTOPIC_WEIGHT>
1700.173

> <PUBCHEM_TOTAL_CHARGE>
0

> <PUBCHEM_HEAVY_ATOM_COUNT>
122

> <PUBCHEM_ATOM_DEF_STEREO_COUNT>
0

> <PUBCHEM_ATOM_UDEF_STEREO_COUNT>
5

> <PUBCHEM_BOND_DEF_STEREO_COUNT>
0

> <PUBCHEM_BOND_UDEF_STEREO_COUNT>
0

> <PUBCHEM_ISOTOPIC_ATOM_COUNT>
0

> <PUBCHEM_COMPONENT_COUNT>
1

> <PUBCHEM_CACTVS_TAUTO_COUNT>
-1

> <PUBCHEM_COORDINATE_TYPE>
1
5
255

> <PUBCHEM_BONDANNOTATIONS>
100  109  8
101  108  8
102  111  8
103  110  8
104  117  8
105  116  8
106  114  8
107  114  8
108  115  8
109  115  8
110  118  8
111  118  8
112  121  8
113  120  8
116  119  8
117  119  8
120  122  8
121  122  8
47  2  3
48  3  3
49  4  3
51  5  3
50  52  3
57  63  8
57  65  8
58  64  8
58  66  8
59  67  8
59  68  8
61  69  8
61  70  8
62  77  8
62  78  8
63  71  8
64  72  8
65  73  8
66  74  8
67  75  8
68  76  8
69  81  8
70  82  8
71  79  8
72  80  8
73  79  8
74  80  8
75  83  8
76  83  8
77  85  8
78  86  8
81  84  8
82  84  8
85  87  8
86  87  8
92  98  8
92  99  8
93  100  8
93  101  8
95  102  8
95  103  8
96  104  8
96  105  8
97  112  8
97  113  8
98  107  8
99  106  8

$$$$
6850753
  -OEChem-02061913382D

 28 29  0     1  0  0  0  0  0999 V2000
    6.0010   -1.3100    0.0000 O   0  0  0  0  0  0  0  0  0  0  0  0
    7.7331    0.6900    0.0000 O   0  0  0  0  0  0  0  0  0  0  0  0
    5.1350    0.1900    0.0000 O   0  0  0  0  0  0  0  0  0  0  0  0
    7.7331   -2.3100    0.0000 O   0  0  0  0  0  0  0  0  0  0  0  0
    9.4651   -1.3100    0.0000 O   0  0  0  0  0  0  0  0  0  0  0  0
    2.5369    0.6900    0.0000 O   0  0  0  0  0  0  0  0  0  0  0  0
    4.2690   -2.3100    0.0000 O   0  0  0  0  0  0  0  0  0  0  0  0
    9.4651    0.6900    0.0000 O   0  0  0  0  0  0  0  0  0  0  0  0
    2.5369   -1.3100    0.0000 O   0  0  0  0  0  0  0  0  0  0  0  0
    6.0010    1.6900    0.0000 O   0  0  0  0  0  0  0  0  0  0  0  0
    5.1350    2.1900    0.0000 O   0  0  0  0  0  0  0  0  0  0  0  0
    6.8671   -0.8100    0.0000 C   0  0  3  0  0  0  0  0  0  0  0  0
    7.7331   -1.3100    0.0000 C   0  0  3  0  0  0  0  0  0  0  0  0
    6.8671    0.1900    0.0000 C   0  0  3  0  0  0  0  0  0  0  0  0
    8.5991   -0.8100    0.0000 C   0  0  3  0  0  0  0  0  0  0  0  0
    5.1350   -0.8100    0.0000 C   0  0  3  0  0  0  0  0  0  0  0  0
    4.2690   -1.3100    0.0000 C   0  0  3  0  0  0  0  0  0  0  0  0
    3.4030   -0.8100    0.0000 C   0  0  3  0  0  0  0  0  0  0  0  0
    3.4030    0.1900    0.0000 C   0  0  3  0  0  0  0  0  0  0  0  0
    4.2690    0.6900    0.0000 C   0  0  3  0  0  0  0  0  0  0  0  0
    8.5991    0.1900    0.0000 C   0  0  3  0  0  0  0  0  0  0  0  0
    6.0010    0.6900    0.0000 C   0  0  0  0  0  0  0  0  0  0  0  0
    4.2690    1.6900    0.0000 C   0  0  0  0  0  0  0  0  0  0  0  0
    8.5991   -2.8100    0.0000 C   0  0  0  0  0  0  0  0  0  0  0  0
   10.3312   -0.8100    0.0000 C   0  0  0  0  0  0  0  0  0  0  0  0
    2.5369    1.6900    0.0000 C   0  0  0  0  0  0  0  0  0  0  0  0
    9.4651    1.6900    0.0000 C   0  0  0  0  0  0  0  0  0  0  0  0
    6.8671    2.1900    0.0000 C   0  0  0  0  0  0  0  0  0  0  0  0
  1 12  1  0  0  0  0
  1 16  1  0  0  0  0
  2 14  1  0  0  0  0
  2 21  1  0  0  0  0
  3 16  1  0  0  0  0
  3 20  1  0  0  0  0
  4 13  1  0  0  0  0
  4 24  1  0  0  0  0
  5 15  1  0  0  0  0
  5 25  1  0  0  0  0
  6 19  1  0  0  0  0
  6 26  1  0  0  0  0
  7 17  1  0  0  0  0
  8 21  1  0  0  0  0
  8 27  1  0  0  0  0
  9 18  1  0  0  0  0
 10 22  1  0  0  0  0
 10 28  1  0  0  0  0
 11 23  1  0  0  0  0
 12 13  1  0  0  0  0
 12 14  1  0  0  0  0
 13 15  1  0  0  0  0
 14 22  1  0  0  0  0
 15 21  1  0  0  0  0
 16 17  1  0  0  0  0
 17 18  1  0  0  0  0
 18 19  1  0  0  0  0
 19 20  1  0  0  0  0
 20 23  1  0  0  0  0
M  END
> <PUBCHEM_COMPOUND_CID>
6850753

> <PUBCHEM_COMPOUND_CANONICALIZED>
1

> <PUBCHEM_CACTVS_COMPLEXITY>
453

> <PUBCHEM_CACTVS_HBOND_ACCEPTOR>
11

> <PUBCHEM_CACTVS_HBOND_DONOR>
3

> <PUBCHEM_CACTVS_ROTATABLE_BOND>
9

> <PUBCHEM_CACTVS_SUBSKEYS>
AAADcfB4PAAAAAAAAAAAAAAAAAAAAAAAAAAkSAAAAAAAAAAAAAAAGgAACAAACBSwgAMCCAAABgAAAAAAAAAAAAAAAAAAAAAAAAAREAIAAAAiQAAFAAAHAAHAYAwAAAAAAAAAAAAAAAAAAAAAAAAAAAAAAA==

> <PUBCHEM_IUPAC_OPENEYE_NAME>
6-(hydroxymethyl)-5-methoxy-2-[4,5,6-trimethoxy-2-(methoxymethyl)tetrahydropyran-3-yl]oxy-tetrahydropyran-3,4-diol

> <PUBCHEM_IUPAC_CAS_NAME>
6-(hydroxymethyl)-5-methoxy-2-[[4,5,6-trimethoxy-2-(methoxymethyl)-3-oxanyl]oxy]oxane-3,4-diol

> <PUBCHEM_IUPAC_NAME>
6-(hydroxymethyl)-5-methoxy-2-[4,5,6-trimethoxy-2-(methoxymethyl)oxan-3-yl]oxyoxane-3,4-diol

> <PUBCHEM_IUPAC_SYSTEMATIC_NAME>
6-(hydroxymethyl)-5-methoxy-2-[4,5,6-trimethoxy-2-(methoxymethyl)oxan-3-yl]oxy-oxane-3,4-diol

> <PUBCHEM_IUPAC_TRADITIONAL_NAME>
5-methoxy-6-methylol-2-[4,5,6-trimethoxy-2-(methoxymethyl)tetrahydropyran-3-yl]oxy-tetrahydropyran-3,4-diol

> <PUBCHEM_IUPAC_INCHI>
InChI=1S/C17H32O11/c1-21-7-9-13(14(23-3)15(24-4)17(25-5)27-9)28-16-11(20)10(19)12(22-2)8(6-18)26-16/h8-20H,6-7H2,1-5H3

> <PUBCHEM_IUPAC_INCHIKEY>
WHJKCPTVEYZNOG-UHFFFAOYSA-N

> <PUBCHEM_XLOGP3_AA>
-2.6

> <PUBCHEM_EXACT_MASS>
412.194

> <PUBCHEM_MOLECULAR_FORMULA>
C17H32O11

> <PUBCHEM_MOLECULAR_WEIGHT>
412.432

> <PUBCHEM_OPENEYE_CAN_SMILES>
COCC1C(C(C(C(O1)OC)OC)OC)OC2C(C(C(C(O2)CO)OC)O)O

> <PUBCHEM_OPENEYE_ISO_SMILES>
COCC1C(C(C(C(O1)OC)OC)OC)OC2C(C(C(C(O2)CO)OC)O)O

> <PUBCHEM_CACTVS_TPSA>
135

> <PUBCHEM_MONOISOTOPIC_WEIGHT>
412.194

> <PUBCHEM_TOTAL_CHARGE>
0

> <PUBCHEM_HEAVY_ATOM_COUNT>
28

> <PUBCHEM_ATOM_DEF_STEREO_COUNT>
0

> <PUBCHEM_ATOM_UDEF_STEREO_COUNT>
10

> <PUBCHEM_BOND_DEF_STEREO_COUNT>
0

> <PUBCHEM_BOND_UDEF_STEREO_COUNT>
0

> <PUBCHEM_ISOTOPIC_ATOM_COUNT>
0

> <PUBCHEM_COMPONENT_COUNT>
1

> <PUBCHEM_CACTVS_TAUTO_COUNT>
-1

> <PUBCHEM_COORDINATE_TYPE>
1
5
255

> <PUBCHEM_BONDANNOTATIONS>
12  1  3
16  1  3
14  22  3
20  23  3
13  4  3
15  5  3
19  6  3
17  7  3
21  8  3
18  9  3

$$$$
7516
  -OEChem-02061913072D

  8  8  0     0  0  0  0  0  0999 V2000
    2.8660    0.9400    0.0000 N   0  0  0  0  0  0  0  0  0  0  0  0
    3.7320    1.4400    0.0000 N   0  0  0  0  0  0  0  0  0  0  0  0
    2.8660   -0.0600    0.0000 C   0  0  0  0  0  0  0  0  0  0  0  0
    2.0000   -0.5600    0.0000 C   0  0  0  0  0  0  0  0  0  0  0  0
    3.7320   -0.5600    0.0000 C   0  0  0  0  0  0  0  0  0  0  0  0
    2.0000   -1.5600    0.0000 C   0  0  0  0  0  0  0  0  0  0  0  0
    3.7320   -1.5600    0.0000 C   0  0  0  0  0  0  0  0  0  0  0  0
    2.8660   -2.0600    0.0000 C   0  0  0  0  0  0  0  0  0  0  0  0
  1  2  1  0  0  0  0
  1  3  1  0  0  0  0
  3  4  2  0  0  0  0
  3  5  1  0  0  0  0
  4  6  1  0  0  0  0
  5  7  2  0  0  0  0
  6  8  2  0  0  0  0
  7  8  1  0  0  0  0
M  END
> <PUBCHEM_COMPOUND_CID>
7516

> <PUBCHEM_COMPOUND_CANONICALIZED>
1

> <PUBCHEM_CACTVS_COMPLEXITY>
57.5

> <PUBCHEM_CACTVS_HBOND_ACCEPTOR>
2

> <PUBCHEM_CACTVS_HBOND_DONOR>
2

> <PUBCHEM_CACTVS_ROTATABLE_BOND>
1

> <PUBCHEM_CACTVS_SUBSKEYS>
AAADccBjAAAAAAAAAAAAAAAAAAAAAAAAAAAwAAAAAAAAAAABAAAAHAAYAAAACAiBEAAwwIBiAACAACRCQACCBAAgAgIYqAAAZIgIICKAkZGAIABgkAAIyAcQAAAAAAAAAAAAAAAAAAAAAAAAAAAAAAAAAA==

> <PUBCHEM_IUPAC_OPENEYE_NAME>
phenylhydrazine

> <PUBCHEM_IUPAC_CAS_NAME>
phenylhydrazine

> <PUBCHEM_IUPAC_NAME>
phenylhydrazine

> <PUBCHEM_IUPAC_SYSTEMATIC_NAME>
phenyldiazane

> <PUBCHEM_IUPAC_TRADITIONAL_NAME>
phenylhydrazine

> <PUBCHEM_IUPAC_INCHI>
InChI=1S/C6H8N2/c7-8-6-4-2-1-3-5-6/h1-5,8H,7H2

> <PUBCHEM_IUPAC_INCHIKEY>
HKOOXMFOFWEVGF-UHFFFAOYSA-N

> <PUBCHEM_XLOGP3>
1.2

> <PUBCHEM_EXACT_MASS>
108.069

> <PUBCHEM_MOLECULAR_FORMULA>
C6H8N2

> <PUBCHEM_MOLECULAR_WEIGHT>
108.144

> <PUBCHEM_OPENEYE_CAN_SMILES>
C1=CC=C(C=C1)NN

> <PUBCHEM_OPENEYE_ISO_SMILES>
C1=CC=C(C=C1)NN

> <PUBCHEM_CACTVS_TPSA>
38

> <PUBCHEM_MONOISOTOPIC_WEIGHT>
108.069

> <PUBCHEM_TOTAL_CHARGE>
0

> <PUBCHEM_HEAVY_ATOM_COUNT>
8

> <PUBCHEM_ATOM_DEF_STEREO_COUNT>
0

> <PUBCHEM_ATOM_UDEF_STEREO_COUNT>
0

> <PUBCHEM_BOND_DEF_STEREO_COUNT>
0

> <PUBCHEM_BOND_UDEF_STEREO_COUNT>
0

> <PUBCHEM_ISOTOPIC_ATOM_COUNT>
0

> <PUBCHEM_COMPONENT_COUNT>
1

> <PUBCHEM_CACTVS_TAUTO_COUNT>
-1

> <PUBCHEM_COORDINATE_TYPE>
1
5
255

> <PUBCHEM_BONDANNOTATIONS>
3  4  8
3  5  8
4  6  8
5  7  8
6  8  8
7  8  8

$$$$
44630107
  -OEChem-02061914152D

 11 12  0     1  0  0  0  0  0999 V2000
    2.6176   -2.1937    0.0000 O   0  0  0  0  0  0  0  0  0  0  0  0
    4.4130   -0.6953    0.0000 C   0  0  3  0  0  0  0  0  0  0  0  0
    3.9352    1.2532    0.0000 C   0  0  0  0  0  0  0  0  0  0  0  0
    4.6718    0.2706    0.0000 C   0  0  1  0  0  0  0  0  0  0  0  0
    3.0403   -1.2874    0.0000 C   0  0  2  0  0  0  0  0  0  0  0  0
    5.8119   -1.2042    0.0000 C   0  0  0  0  0  0  0  0  0  0  0  0
    2.6982   -0.3477    0.0000 C   0  0  0  0  0  0  0  0  0  0  0  0
    6.0707   -0.2382    0.0000 C   0  0  0  0  0  0  0  0  0  0  0  0
    4.1541   -1.6613    0.0000 C   0  0  0  0  0  0  0  0  0  0  0  0
    4.0397    2.2477    0.0000 C   0  0  0  0  0  0  0  0  0  0  0  0
    3.0216    1.6599    0.0000 C   0  0  0  0  0  0  0  0  0  0  0  0
  5  1  1  1  0  0  0
  2  3  1  0  0  0  0
  2  5  1  0  0  0  0
  2  6  1  0  0  0  0
  2  9  1  0  0  0  0
  3  4  1  0  0  0  0
  3 10  1  0  0  0  0
  3 11  1  0  0  0  0
  4  7  1  0  0  0  0
  4  8  1  0  0  0  0
  5  7  1  0  0  0  0
  6  8  1  0  0  0  0
M  END
> <PUBCHEM_COMPOUND_CID>
44630107

> <PUBCHEM_COMPOUND_CANONICALIZED>
1

> <PUBCHEM_CACTVS_COMPLEXITY>
185

> <PUBCHEM_CACTVS_HBOND_ACCEPTOR>
1

> <PUBCHEM_CACTVS_HBOND_DONOR>
1

> <PUBCHEM_CACTVS_ROTATABLE_BOND>
0

> <PUBCHEM_CACTVS_SUBSKEYS>
AAADceBwIAAAAAAAAAAAAAAAAAAAAYMAAAAwAAAAAAAAAAAAAAAAGgAACAAADxSggAICAAAAAgAAAAAAAAAAAAAAAAAAAAAAAAAAEAIAAAAAQAAEAAAAAAGAwPAPgAAAAAAAAACAAAIAABAAAYAADAAAAA==

> <PUBCHEM_IUPAC_OPENEYE_NAME>
(2~{S},4~{R})-1,7,7-trimethylnorbornan-2-ol

> <PUBCHEM_IUPAC_CAS_NAME>
(2~{S},4~{R})-1,7,7-trimethyl-2-bicyclo[2.2.1]heptanol

> <PUBCHEM_IUPAC_NAME>
(2~{S},4~{R})-1,7,7-trimethylbicyclo[2.2.1]heptan-2-ol

> <PUBCHEM_IUPAC_SYSTEMATIC_NAME>
(2~{S},4~{R})-1,7,7-trimethylbicyclo[2.2.1]heptan-2-ol

> <PUBCHEM_IUPAC_TRADITIONAL_NAME>
(2~{S},4~{R})-1,7,7-trimethylnorbornan-2-ol

> <PUBCHEM_IUPAC_INCHI>
InChI=1S/C10H18O/c1-9(2)7-4-5-10(9,3)8(11)6-7/h7-8,11H,4-6H2,1-3H3/t7-,8+,10?/m1/s1

> <PUBCHEM_IUPAC_INCHIKEY>
DTGKSKDOIYIVQL-HHCGNCNQSA-N

> <PUBCHEM_XLOGP3>
2.7

> <PUBCHEM_EXACT_MASS>
154.136

> <PUBCHEM_MOLECULAR_FORMULA>
C10H18O

> <PUBCHEM_MOLECULAR_WEIGHT>
154.253

> <PUBCHEM_OPENEYE_CAN_SMILES>
CC1(C2CCC1(C(C2)O)C)C

> <PUBCHEM_OPENEYE_ISO_SMILES>
CC1([C@@H]2CCC1([C@H](C2)O)C)C

> <PUBCHEM_CACTVS_TPSA>
20.2

> <PUBCHEM_MONOISOTOPIC_WEIGHT>
154.136

> <PUBCHEM_TOTAL_CHARGE>
0

> <PUBCHEM_HEAVY_ATOM_COUNT>
11

> <PUBCHEM_ATOM_DEF_STEREO_COUNT>
2

> <PUBCHEM_ATOM_UDEF_STEREO_COUNT>
1

> <PUBCHEM_BOND_DEF_STEREO_COUNT>
0

> <PUBCHEM_BOND_UDEF_STEREO_COUNT>
0

> <PUBCHEM_ISOTOPIC_ATOM_COUNT>
0

> <PUBCHEM_COMPONENT_COUNT>
1

> <PUBCHEM_CACTVS_TAUTO_COUNT>
-1

> <PUBCHEM_COORDINATE_TYPE>
1
5
255

> <PUBCHEM_BONDANNOTATIONS>
5  1  5
2  9  3
4  12  5

$$$$
3026
  -OEChem-02061913062D

 20 20  0     0  0  0  0  0  0999 V2000
    5.4641   -1.7500    0.0000 O   0  0  0  0  0  0  0  0  0  0  0  0
    8.9282    0.2500    0.0000 O   0  0  0  0  0  0  0  0  0  0  0  0
    6.3301   -0.2500    0.0000 O   0  0  0  0  0  0  0  0  0  0  0  0
    7.1962    0.2500    0.0000 O   0  0  0  0  0  0  0  0  0  0  0  0
    9.7942    1.7500    0.0000 C   0  0  0  0  0  0  0  0  0  0  0  0
    3.7320   -1.7500    0.0000 C   0  0  0  0  0  0  0  0  0  0  0  0
    9.7942    2.7500    0.0000 C   0  0  0  0  0  0  0  0  0  0  0  0
    2.8660   -1.2500    0.0000 C   0  0  0  0  0  0  0  0  0  0  0  0
    8.9282    1.2500    0.0000 C   0  0  0  0  0  0  0  0  0  0  0  0
    4.5981   -1.2500    0.0000 C   0  0  0  0  0  0  0  0  0  0  0  0
    8.0622   -1.2500    0.0000 C   0  0  0  0  0  0  0  0  0  0  0  0
    7.1962   -1.7500    0.0000 C   0  0  0  0  0  0  0  0  0  0  0  0
    2.0000   -1.7500    0.0000 C   0  0  0  0  0  0  0  0  0  0  0  0
   10.6603    3.2500    0.0000 C   0  0  0  0  0  0  0  0  0  0  0  0
    6.3301   -1.2500    0.0000 C   0  0  0  0  0  0  0  0  0  0  0  0
    8.0622   -0.2500    0.0000 C   0  0  0  0  0  0  0  0  0  0  0  0
    7.1962   -2.7500    0.0000 C   0  0  0  0  0  0  0  0  0  0  0  0
    8.9282   -1.7500    0.0000 C   0  0  0  0  0  0  0  0  0  0  0  0
    8.0622   -3.2500    0.0000 C   0  0  0  0  0  0  0  0  0  0  0  0
    8.9282   -2.7500    0.0000 C   0  0  0  0  0  0  0  0  0  0  0  0
  1 10  1  0  0  0  0
  1 15  1  0  0  0  0
  2  9  1  0  0  0  0
  2 16  1  0  0  0  0
  3 15  2  0  0  0  0
  4 16  2  0  0  0  0
  5  7  1  0  0  0  0
  5  9  1  0  0  0  0
  6  8  1  0  0  0  0
  6 10  1  0  0  0  0
  7 14  1  0  0  0  0
  8 13  1  0  0  0  0
 11 12  1  0  0  0  0
 11 16  1  0  0  0  0
 11 18  2  0  0  0  0
 12 15  1  0  0  0  0
 12 17  2  0  0  0  0
 17 19  1  0  0  0  0
 18 20  1  0  0  0  0
 19 20  2  0  0  0  0
M  END
> <PUBCHEM_COMPOUND_CID>
3026

> <PUBCHEM_COMPOUND_CANONICALIZED>
1

> <PUBCHEM_CACTVS_COMPLEXITY>
271

> <PUBCHEM_CACTVS_HBOND_ACCEPTOR>
4

> <PUBCHEM_CACTVS_HBOND_DONOR>
0

> <PUBCHEM_CACTVS_ROTATABLE_BOND>
10

> <PUBCHEM_CACTVS_SUBSKEYS>
AAADceB4OAAAAAAAAAAAAAAAAAAAAAAAAAAwAAAAAAAAAAABAAAAGgAAAAAADACgmAIyCIAABACIAiDSCAACAAAkAAAIiAEACMgIJjKANRiCMQAkwAEIqYfLyKCOgAAAAAAQAAAAAAAAACAAAAAAAAAAAA==

> <PUBCHEM_IUPAC_OPENEYE_NAME>
dibutyl benzene-1,2-dicarboxylate

> <PUBCHEM_IUPAC_CAS_NAME>
benzene-1,2-dicarboxylic acid dibutyl ester

> <PUBCHEM_IUPAC_NAME>
dibutyl benzene-1,2-dicarboxylate

> <PUBCHEM_IUPAC_SYSTEMATIC_NAME>
dibutyl benzene-1,2-dicarboxylate

> <PUBCHEM_IUPAC_TRADITIONAL_NAME>
benzene-1,2-dicarboxylic acid dibutyl ester

> <PUBCHEM_IUPAC_INCHI>
InChI=1S/C16H22O4/c1-3-5-11-19-15(17)13-9-7-8-10-14(13)16(18)20-12-6-4-2/h7-10H,3-6,11-12H2,1-2H3

> <PUBCHEM_IUPAC_INCHIKEY>
DOIRQSBPFJWKBE-UHFFFAOYSA-N

> <PUBCHEM_XLOGP3>
4.7

> <PUBCHEM_EXACT_MASS>
278.152

> <PUBCHEM_MOLECULAR_FORMULA>
C16H22O4

> <PUBCHEM_MOLECULAR_WEIGHT>
278.348

> <PUBCHEM_OPENEYE_CAN_SMILES>
CCCCOC(=O)C1=CC=CC=C1C(=O)OCCCC

> <PUBCHEM_OPENEYE_ISO_SMILES>
CCCCOC(=O)C1=CC=CC=C1C(=O)OCCCC

> <PUBCHEM_CACTVS_TPSA>
52.6

> <PUBCHEM_MONOISOTOPIC_WEIGHT>
278.152

> <PUBCHEM_TOTAL_CHARGE>
0

> <PUBCHEM_HEAVY_ATOM_COUNT>
20

> <PUBCHEM_ATOM_DEF_STEREO_COUNT>
0

> <PUBCHEM_ATOM_UDEF_STEREO_COUNT>
0

> <PUBCHEM_BOND_DEF_STEREO_COUNT>
0

> <PUBCHEM_BOND_UDEF_STEREO_COUNT>
0

> <PUBCHEM_ISOTOPIC_ATOM_COUNT>
0

> <PUBCHEM_COMPONENT_COUNT>
1

> <PUBCHEM_CACTVS_TAUTO_COUNT>
-1

> <PUBCHEM_COORDINATE_TYPE>
1
5
255

> <PUBCHEM_BONDANNOTATIONS>
11  12  8
11  18  8
12  17  8
17  19  8
18  20  8
19  20  8

$$$$
8894
  -OEChem-02061913072D

  6  6  0     0  0  0  0  0  0999 V2000
    2.8660   -1.0000    0.0000 O   0  0  0  0  0  0  0  0  0  0  0  0
    2.8660    1.0000    0.0000 C   0  0  0  0  0  0  0  0  0  0  0  0
    2.0000    0.5000    0.0000 C   0  0  0  0  0  0  0  0  0  0  0  0
    3.7320    0.5000    0.0000 C   0  0  0  0  0  0  0  0  0  0  0  0
    2.0000   -0.5000    0.0000 C   0  0  0  0  0  0  0  0  0  0  0  0
    3.7320   -0.5000    0.0000 C   0  0  0  0  0  0  0  0  0  0  0  0
  1  5  1  0  0  0  0
  1  6  1  0  0  0  0
  2  3  1  0  0  0  0
  2  4  1  0  0  0  0
  3  5  1  0  0  0  0
  4  6  1  0  0  0  0
M  END
> <PUBCHEM_COMPOUND_CID>
8894

> <PUBCHEM_COMPOUND_CANONICALIZED>
1

> <PUBCHEM_CACTVS_COMPLEXITY>
30.9

> <PUBCHEM_CACTVS_HBOND_ACCEPTOR>
1

> <PUBCHEM_CACTVS_HBOND_DONOR>
0

> <PUBCHEM_CACTVS_ROTATABLE_BOND>
0

> <PUBCHEM_CACTVS_SUBSKEYS>
AAADccBgIAAAAAAAAAAAAAAAAAAAAAAAAAAkAAAAAAAAAAAAAAAAGgAAAAAACACggAIAAAAABAAAAAAAAAAAAAAAAAAAAAAAAAAAAAIAAAACAAAEAAAAAACAAAAAAAAAAAAAAAAAAAAAAAAAAAAAAAAAAA==

> <PUBCHEM_IUPAC_OPENEYE_NAME>
tetrahydropyran

> <PUBCHEM_IUPAC_CAS_NAME>
oxane

> <PUBCHEM_IUPAC_NAME>
oxane

> <PUBCHEM_IUPAC_SYSTEMATIC_NAME>
oxane

> <PUBCHEM_IUPAC_TRADITIONAL_NAME>
tetrahydropyran

> <PUBCHEM_IUPAC_INCHI>
InChI=1S/C5H10O/c1-2-4-6-5-3-1/h1-5H2

> <PUBCHEM_IUPAC_INCHIKEY>
DHXVGJBLRPWPCS-UHFFFAOYSA-N

> <PUBCHEM_XLOGP3>
0.9

> <PUBCHEM_EXACT_MASS>
86.073

> <PUBCHEM_MOLECULAR_FORMULA>
C5H10O

> <PUBCHEM_MOLECULAR_WEIGHT>
86.134

> <PUBCHEM_OPENEYE_CAN_SMILES>
C1CCOCC1

> <PUBCHEM_OPENEYE_ISO_SMILES>
C1CCOCC1

> <PUBCHEM_CACTVS_TPSA>
9.2

> <PUBCHEM_MONOISOTOPIC_WEIGHT>
86.073

> <PUBCHEM_TOTAL_CHARGE>
0

> <PUBCHEM_HEAVY_ATOM_COUNT>
6

> <PUBCHEM_ATOM_DEF_STEREO_COUNT>
0

> <PUBCHEM_ATOM_UDEF_STEREO_COUNT>
0

> <PUBCHEM_BOND_DEF_STEREO_COUNT>
0

> <PUBCHEM_BOND_UDEF_STEREO_COUNT>
0

> <PUBCHEM_ISOTOPIC_ATOM_COUNT>
0

> <PUBCHEM_COMPONENT_COUNT>
1

> <PUBCHEM_CACTVS_TAUTO_COUNT>
-1

> <PUBCHEM_COORDINATE_TYPE>
1
5
255

$$$$
24744
  -OEChem-02061913072D

 22 23  0     0  0  0  0  0  0999 V2000
    4.5981   -0.2500    0.0000 O   0  0  0  0  0  0  0  0  0  0  0  0
    5.4641   -1.7500    0.0000 O   0  0  0  0  0  0  0  0  0  0  0  0
    7.1962    4.2500    0.0000 O   0  0  0  0  0  0  0  0  0  0  0  0
    8.0622    2.7500    0.0000 O   0  0  0  0  0  0  0  0  0  0  0  0
    3.7320   -1.7500    0.0000 N   0  0  0  0  0  0  0  0  0  0  0  0
    6.3301    2.7500    0.0000 N   0  0  0  0  0  0  0  0  0  0  0  0
    3.7320   -2.7500    0.0000 C   0  0  0  0  0  0  0  0  0  0  0  0
    2.8660   -4.2500    0.0000 C   0  0  0  0  0  0  0  0  0  0  0  0
    2.8660   -3.2500    0.0000 C   0  0  0  0  0  0  0  0  0  0  0  0
    6.3301    1.7500    0.0000 C   0  0  0  0  0  0  0  0  0  0  0  0
    5.4641    0.2500    0.0000 C   0  0  0  0  0  0  0  0  0  0  0  0
    4.5981   -3.2500    0.0000 C   0  0  0  0  0  0  0  0  0  0  0  0
    3.7320   -4.7500    0.0000 C   0  0  0  0  0  0  0  0  0  0  0  0
    5.4641    1.2500    0.0000 C   0  0  0  0  0  0  0  0  0  0  0  0
    4.5981   -4.2500    0.0000 C   0  0  0  0  0  0  0  0  0  0  0  0
    2.0000   -4.7500    0.0000 C   0  0  0  0  0  0  0  0  0  0  0  0
    7.1962    1.2500    0.0000 C   0  0  0  0  0  0  0  0  0  0  0  0
    6.3301   -0.2500    0.0000 C   0  0  0  0  0  0  0  0  0  0  0  0
    7.1962    0.2500    0.0000 C   0  0  0  0  0  0  0  0  0  0  0  0
    4.5981   -1.2500    0.0000 C   0  0  0  0  0  0  0  0  0  0  0  0
    7.1962    3.2500    0.0000 C   0  0  0  0  0  0  0  0  0  0  0  0
    8.0622    4.7500    0.0000 C   0  0  0  0  0  0  0  0  0  0  0  0
  1 11  1  0  0  0  0
  1 20  1  0  0  0  0
  2 20  2  0  0  0  0
  3 21  1  0  0  0  0
  3 22  1  0  0  0  0
  4 21  2  0  0  0  0
  5  7  1  0  0  0  0
  5 20  1  0  0  0  0
  6 10  1  0  0  0  0
  6 21  1  0  0  0  0
  7  9  1  0  0  0  0
  7 12  2  0  0  0  0
  8  9  2  0  0  0  0
  8 13  1  0  0  0  0
  8 16  1  0  0  0  0
 10 14  2  0  0  0  0
 10 17  1  0  0  0  0
 11 14  1  0  0  0  0
 11 18  2  0  0  0  0
 12 15  1  0  0  0  0
 13 15  2  0  0  0  0
 17 19  2  0  0  0  0
 18 19  1  0  0  0  0
M  END
> <PUBCHEM_COMPOUND_CID>
24744

> <PUBCHEM_COMPOUND_CANONICALIZED>
1

> <PUBCHEM_CACTVS_COMPLEXITY>
388

> <PUBCHEM_CACTVS_HBOND_ACCEPTOR>
4

> <PUBCHEM_CACTVS_HBOND_DONOR>
2

> <PUBCHEM_CACTVS_ROTATABLE_BOND>
5

> <PUBCHEM_CACTVS_SUBSKEYS>
AAADceB7OAAAAAAAAAAAAAAAAAAAAAAAAAAwYAAAAAAAAAABQAAAHgAQAAAADAyBmAIyzoLABACIAiRCWACCCAAhIgAIiAAGbIkMJiLEsZuMMihm1BlI6AeQ0AMOAAAAQgAAAAAAAACEAAAAAAAAAAAAAA==

> <PUBCHEM_IUPAC_OPENEYE_NAME>
[3-(methoxycarbonylamino)phenyl] ~{N}-(m-tolyl)carbamate

> <PUBCHEM_IUPAC_CAS_NAME>
~{N}-[3-[(3-methylanilino)-oxomethoxy]phenyl]carbamic acid methyl ester

> <PUBCHEM_IUPAC_NAME>
[3-(methoxycarbonylamino)phenyl] ~{N}-(3-methylphenyl)carbamate

> <PUBCHEM_IUPAC_SYSTEMATIC_NAME>
[3-(methoxycarbonylamino)phenyl] ~{N}-(3-methylphenyl)carbamate

> <PUBCHEM_IUPAC_TRADITIONAL_NAME>
~{N}-(m-tolyl)carbamic acid [3-(carbomethoxyamino)phenyl] ester

> <PUBCHEM_IUPAC_INCHI>
InChI=1S/C16H16N2O4/c1-11-5-3-6-12(9-11)18-16(20)22-14-8-4-7-13(10-14)17-15(19)21-2/h3-10H,1-2H3,(H,17,19)(H,18,20)

> <PUBCHEM_IUPAC_INCHIKEY>
IDOWTHOLJBTAFI-UHFFFAOYSA-N

> <PUBCHEM_XLOGP3>
3.6

> <PUBCHEM_EXACT_MASS>
300.111

> <PUBCHEM_MOLECULAR_FORMULA>
C16H16N2O4

> <PUBCHEM_MOLECULAR_WEIGHT>
300.314

> <PUBCHEM_OPENEYE_CAN_SMILES>
CC1=CC(=CC=C1)NC(=O)OC2=CC=CC(=C2)NC(=O)OC

> <PUBCHEM_OPENEYE_ISO_SMILES>
CC1=CC(=CC=C1)NC(=O)OC2=CC=CC(=C2)NC(=O)OC

> <PUBCHEM_CACTVS_TPSA>
76.7

> <PUBCHEM_MONOISOTOPIC_WEIGHT>
300.111

> <PUBCHEM_TOTAL_CHARGE>
0

> <PUBCHEM_HEAVY_ATOM_COUNT>
22

> <PUBCHEM_ATOM_DEF_STEREO_COUNT>
0

> <PUBCHEM_ATOM_UDEF_STEREO_COUNT>
0

> <PUBCHEM_BOND_DEF_STEREO_COUNT>
0

> <PUBCHEM_BOND_UDEF_STEREO_COUNT>
0

> <PUBCHEM_ISOTOPIC_ATOM_COUNT>
0

> <PUBCHEM_COMPONENT_COUNT>
1

> <PUBCHEM_CACTVS_TAUTO_COUNT>
-1

> <PUBCHEM_COORDINATE_TYPE>
1
5
255

> <PUBCHEM_BONDANNOTATIONS>
10  14  8
10  17  8
11  14  8
11  18  8
12  15  8
13  15  8
17  19  8
18  19  8
7  12  8
7  9  8
8  13  8
8  9  8

$$$$
7067801
  -OEChem-02061913392D

 29 31  0     1  0  0  0  0  0999 V2000
    5.4641   -4.8465    0.0000 O   0  0  0  0  0  0  0  0  0  0  0  0
    5.4641    1.1535    0.0000 C   0  0  2  0  0  0  0  0  0  0  0  0
    6.4103    1.4582    0.0000 C   0  0  2  0  0  0  0  0  0  0  0  0
    5.4641    0.1535    0.0000 C   0  0  1  0  0  0  0  0  0  0  0  0
    6.9939    0.6535    0.0000 C   0  0  0  0  0  0  0  0  0  0  0  0
    6.4103   -0.1512    0.0000 C   0  0  0  0  0  0  0  0  0  0  0  0
    4.5981    1.6535    0.0000 C   0  0  0  0  0  0  0  0  0  0  0  0
    6.7210    2.4087    0.0000 C   0  0  2  0  0  0  0  0  0  0  0  0
    4.5981   -0.3465    0.0000 C   0  0  0  0  0  0  0  0  0  0  0  0
    5.4641    2.1535    0.0000 C   0  0  0  0  0  0  0  0  0  0  0  0
    3.7320    1.1535    0.0000 C   0  0  0  0  0  0  0  0  0  0  0  0
    3.7320    0.1535    0.0000 C   0  0  0  0  0  0  0  0  0  0  0  0
    6.0531    3.1530    0.0000 C   0  0  0  0  0  0  0  0  0  0  0  0
    7.6995    2.6150    0.0000 C   0  0  0  0  0  0  0  0  0  0  0  0
    4.5981   -1.3465    0.0000 C   0  0  0  0  0  0  0  0  0  0  0  0
    8.0102    3.5655    0.0000 C   0  0  0  0  0  0  0  0  0  0  0  0
    3.7320   -1.8465    0.0000 C   0  0  0  0  0  0  0  0  0  0  0  0
    8.9887    3.7717    0.0000 C   0  0  1  0  0  0  0  0  0  0  0  0
    3.7320   -2.8465    0.0000 C   0  0  0  0  0  0  0  0  0  0  0  0
    9.2993    4.7222    0.0000 C   0  0  0  0  0  0  0  0  0  0  0  0
    4.5981   -3.3465    0.0000 C   0  0  0  0  0  0  0  0  0  0  0  0
    9.6565    3.0274    0.0000 C   0  0  0  0  0  0  0  0  0  0  0  0
    2.8660   -3.3465    0.0000 C   0  0  0  0  0  0  0  0  0  0  0  0
    4.5981   -4.3465    0.0000 C   0  0  2  0  0  0  0  0  0  0  0  0
    2.8660   -4.3465    0.0000 C   0  0  0  0  0  0  0  0  0  0  0  0
    3.7320   -4.8465    0.0000 C   0  0  0  0  0  0  0  0  0  0  0  0
   10.2778    4.9284    0.0000 C   0  0  0  0  0  0  0  0  0  0  0  0
    8.6315    5.4665    0.0000 C   0  0  0  0  0  0  0  0  0  0  0  0
    2.0000   -2.8465    0.0000 C   0  0  0  0  0  0  0  0  0  0  0  0
 24  1  1  1  0  0  0
  2  3  1  0  0  0  0
  2  4  1  0  0  0  0
  2  7  1  0  0  0  0
  2 10  1  1  0  0  0
  3  5  1  0  0  0  0
  3  8  1  0  0  0  0
  4  6  1  0  0  0  0
  4  9  1  0  0  0  0
  5  6  1  0  0  0  0
  7 11  1  0  0  0  0
  8 13  1  6  0  0  0
  8 14  1  0  0  0  0
  9 12  1  0  0  0  0
  9 15  2  3  0  0  0
 11 12  1  0  0  0  0
 14 16  2  0  0  0  0
 15 17  1  0  0  0  0
 16 18  1  0  0  0  0
 17 19  2  3  0  0  0
 18 20  1  0  0  0  0
 18 22  1  1  0  0  0
 19 21  1  0  0  0  0
 19 23  1  0  0  0  0
 20 27  1  0  0  0  0
 20 28  1  0  0  0  0
 21 24  1  0  0  0  0
 23 25  1  0  0  0  0
 23 29  2  0  0  0  0
 24 26  1  0  0  0  0
 25 26  1  0  0  0  0
M  END
> <PUBCHEM_COMPOUND_CID>
7067801

> <PUBCHEM_COMPOUND_CANONICALIZED>
1

> <PUBCHEM_CACTVS_COMPLEXITY>
678

> <PUBCHEM_CACTVS_HBOND_ACCEPTOR>
1

> <PUBCHEM_CACTVS_HBOND_DONOR>
1

> <PUBCHEM_CACTVS_ROTATABLE_BOND>
5

> <PUBCHEM_CACTVS_SUBSKEYS>
AAADcfB4IAAAAAAAAAAAAAAAAAAAAYAAAAAwYAAAAAAAAGAAAAAAGgAACAAADxSggAICAAAAAgCAAiBCAAAAAAAgAAAICAAAAAgIEAIAAQAAQAAEwAAIgAOAwMAPgAAAAAAAAAAAAAAAACAAAQAACAAAAA==

> <PUBCHEM_IUPAC_OPENEYE_NAME>
(1~{S})-3-[2-[(1~{R},3~{a}~{S},7~{a}~{R})-7~{a}-methyl-1-[(~{E},1~{R},4~{R})-1,4,5-trimethylhex-2-enyl]-2,3,3~{a},5,6,7-hexahydro-1~{H}-inden-4-ylidene]ethylidene]-4-methylene-cyclohexanol

> <PUBCHEM_IUPAC_CAS_NAME>
(1~{S})-3-[2-[(1~{R},3~{a}~{S},7~{a}~{R})-1-[(~{E},2~{R},5~{R})-5,6-dimethylhept-3-en-2-yl]-7~{a}-methyl-2,3,3~{a},5,6,7-hexahydro-1~{H}-inden-4-ylidene]ethylidene]-4-methylene-1-cyclohexanol

> <PUBCHEM_IUPAC_NAME>
(1~{S})-3-[2-[(1~{R},3~{a}~{S},7~{a}~{R})-1-[(~{E},2~{R},5~{R})-5,6-dimethylhept-3-en-2-yl]-7~{a}-methyl-2,3,3~{a},5,6,7-hexahydro-1~{H}-inden-4-ylidene]ethylidene]-4-methylidenecyclohexan-1-ol

> <PUBCHEM_IUPAC_SYSTEMATIC_NAME>
(1~{S})-3-[2-[(1~{R},3~{a}~{S},7~{a}~{R})-1-[(~{E},2~{R},5~{R})-5,6-dimethylhept-3-en-2-yl]-7~{a}-methyl-2,3,3~{a},5,6,7-hexahydro-1~{H}-inden-4-ylidene]ethylidene]-4-methylidene-cyclohexan-1-ol

> <PUBCHEM_IUPAC_TRADITIONAL_NAME>
(1~{S})-3-[2-[(1~{R},3~{a}~{S},7~{a}~{R})-7~{a}-methyl-1-[(~{E},1~{R},4~{R})-1,4,5-trimethylhex-2-enyl]-2,3,3~{a},5,6,7-hexahydro-1~{H}-inden-4-ylidene]ethylidene]-4-methylene-cyclohexanol

> <PUBCHEM_IUPAC_INCHI>
InChI=1S/C28H44O/c1-19(2)20(3)9-10-22(5)26-15-16-27-23(8-7-17-28(26,27)6)12-13-24-18-25(29)14-11-21(24)4/h9-10,12-13,19-20,22,25-27,29H,4,7-8,11,14-18H2,1-3,5-6H3/b10-9+,23-12?,24-13?/t20-,22+,25-,26+,27-,28+/m0/s1

> <PUBCHEM_IUPAC_INCHIKEY>
MECHNRXZTMCUDQ-FKHYFIEFSA-N

> <PUBCHEM_XLOGP3_AA>
7.4

> <PUBCHEM_EXACT_MASS>
396.339

> <PUBCHEM_MOLECULAR_FORMULA>
C28H44O

> <PUBCHEM_MOLECULAR_WEIGHT>
396.659

> <PUBCHEM_OPENEYE_CAN_SMILES>
CC(C)C(C)C=CC(C)C1CCC2C1(CCCC2=CC=C3CC(CCC3=C)O)C

> <PUBCHEM_OPENEYE_ISO_SMILES>
C[C@H](/C=C/[C@H](C)C(C)C)[C@H]1CC[C@@H]2[C@@]1(CCCC2=CC=C3C[C@H](CCC3=C)O)C

> <PUBCHEM_CACTVS_TPSA>
20.2

> <PUBCHEM_MONOISOTOPIC_WEIGHT>
396.339

> <PUBCHEM_TOTAL_CHARGE>
0

> <PUBCHEM_HEAVY_ATOM_COUNT>
29

> <PUBCHEM_ATOM_DEF_STEREO_COUNT>
6

> <PUBCHEM_ATOM_UDEF_STEREO_COUNT>
0

> <PUBCHEM_BOND_DEF_STEREO_COUNT>
1

> <PUBCHEM_BOND_UDEF_STEREO_COUNT>
2

> <PUBCHEM_ISOTOPIC_ATOM_COUNT>
0

> <PUBCHEM_COMPONENT_COUNT>
1

> <PUBCHEM_CACTVS_TAUTO_COUNT>
-1

> <PUBCHEM_COORDINATE_TYPE>
1
5
255

> <PUBCHEM_BONDANNOTATIONS>
24  1  5
17  19  1
18  22  5
2  10  5
3  30  6
4  31  6
8  13  6
9  15  1

$$$$
7716
  -OEChem-02061913072D

 16 16  0     0  0  0  0  0  0999 V2000
    4.5981    1.2500    0.0000 C   0  0  0  0  0  0  0  0  0  0  0  0
    4.5981    0.2500    0.0000 C   0  0  0  0  0  0  0  0  0  0  0  0
    5.4641    1.7500    0.0000 C   0  0  0  0  0  0  0  0  0  0  0  0
    3.7320   -0.2500    0.0000 C   0  0  0  0  0  0  0  0  0  0  0  0
    5.4641    2.7500    0.0000 C   0  0  0  0  0  0  0  0  0  0  0  0
    3.7320   -1.2500    0.0000 C   0  0  0  0  0  0  0  0  0  0  0  0
    6.3301    3.2500    0.0000 C   0  0  0  0  0  0  0  0  0  0  0  0
    2.8660   -1.7500    0.0000 C   0  0  0  0  0  0  0  0  0  0  0  0
    6.3301    4.2500    0.0000 C   0  0  0  0  0  0  0  0  0  0  0  0
    2.8660   -2.7500    0.0000 C   0  0  0  0  0  0  0  0  0  0  0  0
    7.1962    4.7500    0.0000 C   0  0  0  0  0  0  0  0  0  0  0  0
    2.0000   -3.2500    0.0000 C   0  0  0  0  0  0  0  0  0  0  0  0
    3.7320   -3.2500    0.0000 C   0  0  0  0  0  0  0  0  0  0  0  0
    2.0000   -4.2500    0.0000 C   0  0  0  0  0  0  0  0  0  0  0  0
    3.7320   -4.2500    0.0000 C   0  0  0  0  0  0  0  0  0  0  0  0
    2.8660   -4.7500    0.0000 C   0  0  0  0  0  0  0  0  0  0  0  0
  1  2  1  0  0  0  0
  1  3  1  0  0  0  0
  2  4  1  0  0  0  0
  3  5  1  0  0  0  0
  4  6  1  0  0  0  0
  5  7  1  0  0  0  0
  6  8  1  0  0  0  0
  7  9  1  0  0  0  0
  8 10  1  0  0  0  0
  9 11  1  0  0  0  0
 10 12  2  0  0  0  0
 10 13  1  0  0  0  0
 12 14  1  0  0  0  0
 13 15  2  0  0  0  0
 14 16  2  0  0  0  0
 15 16  1  0  0  0  0
M  END
> <PUBCHEM_COMPOUND_CID>
7716

> <PUBCHEM_COMPOUND_CANONICALIZED>
1

> <PUBCHEM_CACTVS_COMPLEXITY>
133

> <PUBCHEM_CACTVS_HBOND_ACCEPTOR>
0

> <PUBCHEM_CACTVS_HBOND_DONOR>
0

> <PUBCHEM_CACTVS_ROTATABLE_BOND>
9

> <PUBCHEM_CACTVS_SUBSKEYS>
AAADceB4AAAAAAAAAAAAAAAAAAAAAAAAAAAwAAAAAAAAAAABAAAAGAAAAAAADACAGAAyAIAAAACAAiBCAAACAAAgAAAIiAAAAIgIICKAERCAIAAggAAIiAcAgMAOAAAAAAAAAAAAAAAAAAAAAAAAAAAAAA==

> <PUBCHEM_IUPAC_OPENEYE_NAME>
decylbenzene

> <PUBCHEM_IUPAC_CAS_NAME>
decylbenzene

> <PUBCHEM_IUPAC_NAME>
decylbenzene

> <PUBCHEM_IUPAC_SYSTEMATIC_NAME>
decylbenzene

> <PUBCHEM_IUPAC_TRADITIONAL_NAME>
decylbenzene

> <PUBCHEM_IUPAC_INCHI>
InChI=1S/C16H26/c1-2-3-4-5-6-7-8-10-13-16-14-11-9-12-15-16/h9,11-12,14-15H,2-8,10,13H2,1H3

> <PUBCHEM_IUPAC_INCHIKEY>
UZILCZKGXMQEQR-UHFFFAOYSA-N

> <PUBCHEM_XLOGP3>
7.7

> <PUBCHEM_EXACT_MASS>
218.203

> <PUBCHEM_MOLECULAR_FORMULA>
C16H26

> <PUBCHEM_MOLECULAR_WEIGHT>
218.384

> <PUBCHEM_OPENEYE_CAN_SMILES>
CCCCCCCCCCC1=CC=CC=C1

> <PUBCHEM_OPENEYE_ISO_SMILES>
CCCCCCCCCCC1=CC=CC=C1

> <PUBCHEM_CACTVS_TPSA>
0

> <PUBCHEM_MONOISOTOPIC_WEIGHT>
218.203

> <PUBCHEM_TOTAL_CHARGE>
0

> <PUBCHEM_HEAVY_ATOM_COUNT>
16

> <PUBCHEM_ATOM_DEF_STEREO_COUNT>
0

> <PUBCHEM_ATOM_UDEF_STEREO_COUNT>
0

> <PUBCHEM_BOND_DEF_STEREO_COUNT>
0

> <PUBCHEM_BOND_UDEF_STEREO_COUNT>
0

> <PUBCHEM_ISOTOPIC_ATOM_COUNT>
0

> <PUBCHEM_COMPONENT_COUNT>
1

> <PUBCHEM_CACTVS_TAUTO_COUNT>
-1

> <PUBCHEM_COORDINATE_TYPE>
1
5
255

> <PUBCHEM_BONDANNOTATIONS>
10  12  8
10  13  8
12  14  8
13  15  8
14  16  8
15  16  8

$$$$
5280795
  -OEChem-02061913342D

 28 30  0     1  0  0  0  0  0999 V2000
    2.0000   -4.8465    0.0000 O   0  0  0  0  0  0  0  0  0  0  0  0
    5.4641    1.1535    0.0000 C   0  0  2  0  0  0  0  0  0  0  0  0
    6.4103    1.4582    0.0000 C   0  0  2  0  0  0  0  0  0  0  0  0
    5.4641    0.1535    0.0000 C   0  0  1  0  0  0  0  0  0  0  0  0
    6.9939    0.6535    0.0000 C   0  0  0  0  0  0  0  0  0  0  0  0
    6.4103   -0.1512    0.0000 C   0  0  0  0  0  0  0  0  0  0  0  0
    4.5981    1.6535    0.0000 C   0  0  0  0  0  0  0  0  0  0  0  0
    6.7210    2.4087    0.0000 C   0  0  1  0  0  0  0  0  0  0  0  0
    4.5981   -0.3465    0.0000 C   0  0  0  0  0  0  0  0  0  0  0  0
    5.4641    2.1535    0.0000 C   0  0  0  0  0  0  0  0  0  0  0  0
    3.7320    1.1535    0.0000 C   0  0  0  0  0  0  0  0  0  0  0  0
    3.7320    0.1535    0.0000 C   0  0  0  0  0  0  0  0  0  0  0  0
    7.6995    2.6150    0.0000 C   0  0  0  0  0  0  0  0  0  0  0  0
    6.0531    3.1530    0.0000 C   0  0  0  0  0  0  0  0  0  0  0  0
    4.5981   -1.3465    0.0000 C   0  0  0  0  0  0  0  0  0  0  0  0
    8.0102    3.5655    0.0000 C   0  0  0  0  0  0  0  0  0  0  0  0
    8.9887    3.7717    0.0000 C   0  0  0  0  0  0  0  0  0  0  0  0
    3.7320   -1.8465    0.0000 C   0  0  0  0  0  0  0  0  0  0  0  0
    9.2993    4.7222    0.0000 C   0  0  0  0  0  0  0  0  0  0  0  0
    3.7320   -2.8465    0.0000 C   0  0  0  0  0  0  0  0  0  0  0  0
    2.8660   -3.3465    0.0000 C   0  0  0  0  0  0  0  0  0  0  0  0
   10.2778    4.9284    0.0000 C   0  0  0  0  0  0  0  0  0  0  0  0
    8.6315    5.4665    0.0000 C   0  0  0  0  0  0  0  0  0  0  0  0
    4.5981   -3.3465    0.0000 C   0  0  0  0  0  0  0  0  0  0  0  0
    2.8660   -4.3465    0.0000 C   0  0  2  0  0  0  0  0  0  0  0  0
    4.5981   -4.3465    0.0000 C   0  0  0  0  0  0  0  0  0  0  0  0
    3.7320   -4.8465    0.0000 C   0  0  0  0  0  0  0  0  0  0  0  0
    5.4641   -2.8465    0.0000 C   0  0  0  0  0  0  0  0  0  0  0  0
 25  1  1  6  0  0  0
  2  3  1  0  0  0  0
  2  4  1  0  0  0  0
  2  7  1  0  0  0  0
  2 10  1  1  0  0  0
  3  5  1  0  0  0  0
  3  8  1  0  0  0  0
  4  6  1  0  0  0  0
  4  9  1  0  0  0  0
  5  6  1  0  0  0  0
  7 11  1  0  0  0  0
  8 13  1  0  0  0  0
  8 14  1  6  0  0  0
  9 12  1  0  0  0  0
  9 15  2  0  0  0  0
 11 12  1  0  0  0  0
 13 16  1  0  0  0  0
 15 18  1  0  0  0  0
 16 17  1  0  0  0  0
 17 19  1  0  0  0  0
 18 20  2  0  0  0  0
 19 22  1  0  0  0  0
 19 23  1  0  0  0  0
 20 21  1  0  0  0  0
 20 24  1  0  0  0  0
 21 25  1  0  0  0  0
 24 26  1  0  0  0  0
 24 28  2  0  0  0  0
 25 27  1  0  0  0  0
 26 27  1  0  0  0  0
M  END
> <PUBCHEM_COMPOUND_CID>
5280795

> <PUBCHEM_COMPOUND_CANONICALIZED>
1

> <PUBCHEM_CACTVS_COMPLEXITY>
610

> <PUBCHEM_CACTVS_HBOND_ACCEPTOR>
1

> <PUBCHEM_CACTVS_HBOND_DONOR>
1

> <PUBCHEM_CACTVS_ROTATABLE_BOND>
6

> <PUBCHEM_CACTVS_SUBSKEYS>
AAADcfB4IAAAAAAAAAAAAAAAAAAAAYAAAAAwYAAAAAAAAGAAAAAAGgAACAAADxSggAICAAAAAgCAAiBCAAAAAAAgAAAACAAAAAgIEAIAAQAAQAAEwAAIgAOAwMAPgAAAAAAAAAAAAAAAACAAAQAACAAAAA==

> <PUBCHEM_IUPAC_OPENEYE_NAME>
(1~{S},3~{Z})-3-[(2~{E})-2-[(1~{R},3~{a}~{S},7~{a}~{R})-1-[(1~{R})-1,5-dimethylhexyl]-7~{a}-methyl-2,3,3~{a},5,6,7-hexahydro-1~{H}-inden-4-ylidene]ethylidene]-4-methylene-cyclohexanol

> <PUBCHEM_IUPAC_CAS_NAME>
(1~{S},3~{Z})-3-[(2~{E})-2-[(1~{R},3~{a}~{S},7~{a}~{R})-7~{a}-methyl-1-[(2~{R})-6-methylheptan-2-yl]-2,3,3~{a},5,6,7-hexahydro-1~{H}-inden-4-ylidene]ethylidene]-4-methylene-1-cyclohexanol

> <PUBCHEM_IUPAC_NAME>
(1~{S},3~{Z})-3-[(2~{E})-2-[(1~{R},3~{a}~{S},7~{a}~{R})-7~{a}-methyl-1-[(2~{R})-6-methylheptan-2-yl]-2,3,3~{a},5,6,7-hexahydro-1~{H}-inden-4-ylidene]ethylidene]-4-methylidenecyclohexan-1-ol

> <PUBCHEM_IUPAC_SYSTEMATIC_NAME>
(1~{S},3~{Z})-3-[(2~{E})-2-[(1~{R},3~{a}~{S},7~{a}~{R})-7~{a}-methyl-1-[(2~{R})-6-methylheptan-2-yl]-2,3,3~{a},5,6,7-hexahydro-1~{H}-inden-4-ylidene]ethylidene]-4-methylidene-cyclohexan-1-ol

> <PUBCHEM_IUPAC_TRADITIONAL_NAME>
(1~{S},3~{Z})-3-[(2~{E})-2-[(1~{R},3~{a}~{S},7~{a}~{R})-1-[(1~{R})-1,5-dimethylhexyl]-7~{a}-methyl-2,3,3~{a},5,6,7-hexahydro-1~{H}-inden-4-ylidene]ethylidene]-4-methylene-cyclohexanol

> <PUBCHEM_IUPAC_INCHI>
InChI=1S/C27H44O/c1-19(2)8-6-9-21(4)25-15-16-26-22(10-7-17-27(25,26)5)12-13-23-18-24(28)14-11-20(23)3/h12-13,19,21,24-26,28H,3,6-11,14-18H2,1-2,4-5H3/b22-12+,23-13-/t21-,24+,25-,26+,27-/m1/s1

> <PUBCHEM_IUPAC_INCHIKEY>
QYSXJUFSXHHAJI-YRZJJWOYSA-N

> <PUBCHEM_XLOGP3_AA>
7.9

> <PUBCHEM_EXACT_MASS>
384.339

> <PUBCHEM_MOLECULAR_FORMULA>
C27H44O

> <PUBCHEM_MOLECULAR_WEIGHT>
384.648

> <PUBCHEM_OPENEYE_CAN_SMILES>
CC(C)CCCC(C)C1CCC2C1(CCCC2=CC=C3CC(CCC3=C)O)C

> <PUBCHEM_OPENEYE_ISO_SMILES>
C[C@H](CCCC(C)C)[C@H]1CC[C@@H]\2[C@@]1(CCC/C2=C\C=C/3\C[C@H](CCC3=C)O)C

> <PUBCHEM_CACTVS_TPSA>
20.2

> <PUBCHEM_MONOISOTOPIC_WEIGHT>
384.339

> <PUBCHEM_TOTAL_CHARGE>
0

> <PUBCHEM_HEAVY_ATOM_COUNT>
28

> <PUBCHEM_ATOM_DEF_STEREO_COUNT>
5

> <PUBCHEM_ATOM_UDEF_STEREO_COUNT>
0

> <PUBCHEM_BOND_DEF_STEREO_COUNT>
2

> <PUBCHEM_BOND_UDEF_STEREO_COUNT>
0

> <PUBCHEM_ISOTOPIC_ATOM_COUNT>
0

> <PUBCHEM_COMPONENT_COUNT>
1

> <PUBCHEM_CACTVS_TAUTO_COUNT>
-1

> <PUBCHEM_COORDINATE_TYPE>
1
5
255

> <PUBCHEM_BONDANNOTATIONS>
25  1  6
2  10  5
3  29  6
4  30  6
8  14  6

$$$$
44575418
  -OEChem-02061914142D

 25 29  0     1  0  0  0  0  0999 V2000
    5.8776    0.5374    0.0000 O   0  0  0  0  0  0  0  0  0  0  0  0
    2.1162   -1.7746    0.0000 O   0  0  0  0  0  0  0  0  0  0  0  0
    8.8222   -0.5632    0.0000 O   0  0  0  0  0  0  0  0  0  0  0  0
    8.2994    1.0940    0.0000 O   0  0  0  0  0  0  0  0  0  0  0  0
    4.8007    1.7658    0.0000 O   0  0  0  0  0  0  0  0  0  0  0  0
    6.5267    1.6203    0.0000 O   0  0  0  0  0  0  0  0  0  0  0  0
    4.8095   -0.3508    0.0000 C   0  0  1  0  0  0  0  0  0  0  0  0
    5.1114   -1.2180    0.0000 C   0  0  2  0  0  0  0  0  0  0  0  0
    6.2865   -0.3224    0.0000 C   0  0  3  0  0  0  0  0  0  0  0  0
    6.0235   -1.1965    0.0000 C   0  0  2  0  0  0  0  0  0  0  0  0
    5.5377    0.1984    0.0000 C   0  0  2  0  0  0  0  0  0  0  0  0
    4.1135   -1.1832    0.0000 C   0  0  0  0  0  0  0  0  0  0  0  0
    7.2038   -0.1064    0.0000 C   0  0  2  0  0  0  0  0  0  0  0  0
    3.0606   -1.4458    0.0000 C   0  0  2  0  0  0  0  0  0  0  0  0
    3.9426   -0.0462    0.0000 C   0  0  0  0  0  0  0  0  0  0  0  0
    4.6212   -1.9946    0.0000 C   0  0  0  0  0  0  0  0  0  0  0  0
    3.7088   -2.0958    0.0000 C   0  0  0  0  0  0  0  0  0  0  0  0
    3.1650   -0.5332    0.0000 C   0  0  0  0  0  0  0  0  0  0  0  0
    6.6612   -1.9110    0.0000 C   0  0  0  0  0  0  0  0  0  0  0  0
    7.8489   -0.7926    0.0000 C   0  0  2  0  0  0  0  0  0  0  0  0
    7.4686    0.5374    0.0000 C   0  0  0  0  0  0  0  0  0  0  0  0
    5.6217    1.1949    0.0000 C   0  0  0  0  0  0  0  0  0  0  0  0
    8.1872    0.0748    0.0000 C   0  0  0  0  0  0  0  0  0  0  0  0
    7.5774   -1.6953    0.0000 C   0  0  0  0  0  0  0  0  0  0  0  0
    2.3614    0.0619    0.0000 C   0  0  0  0  0  0  0  0  0  0  0  0
 10  1  1  6  0  0  0
  1 21  1  0  0  0  0
 14  2  1  6  0  0  0
 20  3  1  1  0  0  0
  4 21  2  0  0  0  0
  5 22  1  0  0  0  0
  6 22  2  0  0  0  0
  7  8  1  0  0  0  0
  7 11  1  0  0  0  0
  7 12  1  6  0  0  0
  7 15  1  0  0  0  0
  8 10  1  0  0  0  0
  8 16  1  0  0  0  0
  9 10  1  0  0  0  0
  9 11  1  0  0  0  0
  9 13  1  0  0  0  0
 10 19  1  0  0  0  0
 11 22  1  0  0  0  0
 12 14  1  0  0  0  0
 13 20  1  0  0  0  0
 13 21  1  0  0  0  0
 13 23  1  6  0  0  0
 14 17  1  0  0  0  0
 14 18  1  0  0  0  0
 15 18  1  0  0  0  0
 16 17  1  0  0  0  0
 18 25  2  0  0  0  0
 19 24  2  0  0  0  0
 20 24  1  0  0  0  0
M  END
> <PUBCHEM_COMPOUND_CID>
44575418

> <PUBCHEM_COMPOUND_CANONICALIZED>
1

> <PUBCHEM_CACTVS_COMPLEXITY>
772

> <PUBCHEM_CACTVS_HBOND_ACCEPTOR>
6

> <PUBCHEM_CACTVS_HBOND_DONOR>
3

> <PUBCHEM_CACTVS_ROTATABLE_BOND>
1

> <PUBCHEM_CACTVS_SUBSKEYS>
AAADceB4OAAAAAAAAAAAAAAAAAAAAaMEAAAwQAAABggSAGDAAAAAGgAACAAAD1SggAICCAAABgCIAiDSCAAAAAAgAAAICAEAAAgAFBYAIQACUAAFoAAIMAPK7vzPgAAAAAAAAADAAAYAACAAAYAADAAAAA==

> <PUBCHEM_IUPAC_OPENEYE_NAME>
(1~{R},2~{R},5~{S},8~{S},9~{S},11~{R},12~{S})-5,12-dihydroxy-11-methyl-6-methylene-16-oxo-15-oxapentacyclo[9.3.2.1^{5,8}.0^{1,10}.0^{2,8}]heptadec-13-ene-9-carboxylic acid

> <PUBCHEM_IUPAC_CAS_NAME>
(1~{R},2~{R},5~{S},8~{S},9~{S},11~{R},12~{S})-5,12-dihydroxy-11-methyl-6-methylene-16-oxo-15-oxapentacyclo[9.3.2.1^{5,8}.0^{1,10}.0^{2,8}]heptadec-13-ene-9-carboxylic acid

> <PUBCHEM_IUPAC_NAME>
(1~{R},2~{R},5~{S},8~{S},9~{S},11~{R},12~{S})-5,12-dihydroxy-11-methyl-6-methylidene-16-oxo-15-oxapentacyclo[9.3.2.1^{5,8}.0^{1,10}.0^{2,8}]heptadec-13-ene-9-carboxylic acid

> <PUBCHEM_IUPAC_SYSTEMATIC_NAME>
(1~{R},2~{R},5~{S},8~{S},9~{S},11~{R},12~{S})-11-methyl-6-methylidene-5,12-bis(oxidanyl)-16-oxidanylidene-15-oxapentacyclo[9.3.2.1^{5,8}.0^{1,10}.0^{2,8}]heptadec-13-ene-9-carboxylic acid

> <PUBCHEM_IUPAC_TRADITIONAL_NAME>
(1~{R},2~{R},5~{S},8~{S},9~{S},11~{R},12~{S})-5,12-dihydroxy-16-keto-11-methyl-6-methylene-15-oxapentacyclo[9.3.2.1^{5,8}.0^{1,10}.0^{2,8}]heptadec-13-ene-9-carboxylic acid

> <PUBCHEM_IUPAC_INCHI>
InChI=1S/C19H22O6/c1-9-7-17-8-18(9,24)5-3-10(17)19-6-4-11(20)16(2,15(23)25-19)13(19)12(17)14(21)22/h4,6,10-13,20,24H,1,3,5,7-8H2,2H3,(H,21,22)/t10-,11+,12-,13?,16+,17+,18+,19-/m1/s1

> <PUBCHEM_IUPAC_INCHIKEY>
IXORZMNAPKEEDV-OHSBXDGMSA-N

> <PUBCHEM_XLOGP3>
0.2

> <PUBCHEM_EXACT_MASS>
346.142

> <PUBCHEM_MOLECULAR_FORMULA>
C19H22O6

> <PUBCHEM_MOLECULAR_WEIGHT>
346.379

> <PUBCHEM_OPENEYE_CAN_SMILES>
CC12C(C=CC3(C1C(C45C3CCC(C4)(C(=C)C5)O)C(=O)O)OC2=O)O

> <PUBCHEM_OPENEYE_ISO_SMILES>
C[C@]12[C@H](C=C[C@@]3(C1[C@@H]([C@]45[C@H]3CC[C@](C4)(C(=C)C5)O)C(=O)O)OC2=O)O

> <PUBCHEM_CACTVS_TPSA>
104

> <PUBCHEM_MONOISOTOPIC_WEIGHT>
346.142

> <PUBCHEM_TOTAL_CHARGE>
0

> <PUBCHEM_HEAVY_ATOM_COUNT>
25

> <PUBCHEM_ATOM_DEF_STEREO_COUNT>
7

> <PUBCHEM_ATOM_UDEF_STEREO_COUNT>
1

> <PUBCHEM_BOND_DEF_STEREO_COUNT>
0

> <PUBCHEM_BOND_UDEF_STEREO_COUNT>
0

> <PUBCHEM_ISOTOPIC_ATOM_COUNT>
0

> <PUBCHEM_COMPONENT_COUNT>
1

> <PUBCHEM_CACTVS_TAUTO_COUNT>
-1

> <PUBCHEM_COORDINATE_TYPE>
1
5
255

> <PUBCHEM_BONDANNOTATIONS>
10  1  6
13  23  6
14  2  6
20  3  5
7  12  6
8  26  5
9  11  3

$$$$
10492
  -OEChem-02061913072D

 11 12  0     1  0  0  0  0  0999 V2000
    2.6176   -2.1937    0.0000 O   0  0  0  0  0  0  0  0  0  0  0  0
    4.4130   -0.6953    0.0000 C   0  0  2  0  0  0  0  0  0  0  0  0
    3.9352    1.2532    0.0000 C   0  0  0  0  0  0  0  0  0  0  0  0
    4.6718    0.2706    0.0000 C   0  0  2  0  0  0  0  0  0  0  0  0
    3.0403   -1.2874    0.0000 C   0  0  2  0  0  0  0  0  0  0  0  0
    5.8119   -1.2042    0.0000 C   0  0  0  0  0  0  0  0  0  0  0  0
    2.6982   -0.3477    0.0000 C   0  0  0  0  0  0  0  0  0  0  0  0
    6.0707   -0.2382    0.0000 C   0  0  0  0  0  0  0  0  0  0  0  0
    4.1541   -1.6613    0.0000 C   0  0  0  0  0  0  0  0  0  0  0  0
    4.0397    2.2477    0.0000 C   0  0  0  0  0  0  0  0  0  0  0  0
    3.0216    1.6599    0.0000 C   0  0  0  0  0  0  0  0  0  0  0  0
  5  1  1  1  0  0  0
  2  3  1  0  0  0  0
  2  5  1  0  0  0  0
  2  6  1  0  0  0  0
  2  9  1  6  0  0  0
  3  4  1  0  0  0  0
  3 10  1  0  0  0  0
  3 11  1  0  0  0  0
  4  7  1  0  0  0  0
  4  8  1  0  0  0  0
  5  7  1  0  0  0  0
  6  8  1  0  0  0  0
M  END
> <PUBCHEM_COMPOUND_CID>
10492

> <PUBCHEM_COMPOUND_CANONICALIZED>
1

> <PUBCHEM_CACTVS_COMPLEXITY>
185

> <PUBCHEM_CACTVS_HBOND_ACCEPTOR>
1

> <PUBCHEM_CACTVS_HBOND_DONOR>
1

> <PUBCHEM_CACTVS_ROTATABLE_BOND>
0

> <PUBCHEM_CACTVS_SUBSKEYS>
AAADceBwIAAAAAAAAAAAAAAAAAAAAYMAAAAwAAAAAAAAAAAAAAAAGgAACAAADxSggAICAAAAAgAAAAAAAAAAAAAAAAAAAAAAAAAAEAIAAAAAQAAEAAAAAAGAwPAPgAAAAAAAAACAAAIAABAAAYAADAAAAA==

> <PUBCHEM_IUPAC_OPENEYE_NAME>
(1~{R},2~{S},4~{S})-1,7,7-trimethylnorbornan-2-ol

> <PUBCHEM_IUPAC_CAS_NAME>
(1~{R},2~{S},4~{S})-1,7,7-trimethyl-2-bicyclo[2.2.1]heptanol

> <PUBCHEM_IUPAC_NAME>
(1~{R},2~{S},4~{S})-1,7,7-trimethylbicyclo[2.2.1]heptan-2-ol

> <PUBCHEM_IUPAC_SYSTEMATIC_NAME>
(1~{R},2~{S},4~{S})-1,7,7-trimethylbicyclo[2.2.1]heptan-2-ol

> <PUBCHEM_IUPAC_TRADITIONAL_NAME>
(1~{R},2~{S},4~{S})-1,7,7-trimethylnorbornan-2-ol

> <PUBCHEM_IUPAC_INCHI>
InChI=1S/C10H18O/c1-9(2)7-4-5-10(9,3)8(11)6-7/h7-8,11H,4-6H2,1-3H3/t7-,8-,10-/m0/s1

> <PUBCHEM_IUPAC_INCHIKEY>
DTGKSKDOIYIVQL-NRPADANISA-N

> <PUBCHEM_XLOGP3>
2.7

> <PUBCHEM_EXACT_MASS>
154.136

> <PUBCHEM_MOLECULAR_FORMULA>
C10H18O

> <PUBCHEM_MOLECULAR_WEIGHT>
154.253

> <PUBCHEM_OPENEYE_CAN_SMILES>
CC1(C2CCC1(C(C2)O)C)C

> <PUBCHEM_OPENEYE_ISO_SMILES>
C[C@@]12CC[C@H](C1(C)C)C[C@@H]2O

> <PUBCHEM_CACTVS_TPSA>
20.2

> <PUBCHEM_MONOISOTOPIC_WEIGHT>
154.136

> <PUBCHEM_TOTAL_CHARGE>
0

> <PUBCHEM_HEAVY_ATOM_COUNT>
11

> <PUBCHEM_ATOM_DEF_STEREO_COUNT>
3

> <PUBCHEM_ATOM_UDEF_STEREO_COUNT>
0

> <PUBCHEM_BOND_DEF_STEREO_COUNT>
0

> <PUBCHEM_BOND_UDEF_STEREO_COUNT>
0

> <PUBCHEM_ISOTOPIC_ATOM_COUNT>
0

> <PUBCHEM_COMPONENT_COUNT>
1

> <PUBCHEM_CACTVS_TAUTO_COUNT>
-1

> <PUBCHEM_COORDINATE_TYPE>
1
5
255

> <PUBCHEM_BONDANNOTATIONS>
5  1  5
2  9  6
4  12  6

$$$$
798
  -OEChem-02061913062D

  9 10  0     0  0  0  0  0  0999 V2000
    4.6783   -0.6077    0.0000 N   0  0  0  0  0  0  0  0  0  0  0  0
    3.7320   -0.3030    0.0000 C   0  0  0  0  0  0  0  0  0  0  0  0
    3.7320    0.6970    0.0000 C   0  0  0  0  0  0  0  0  0  0  0  0
    4.6783    1.0018    0.0000 C   0  0  0  0  0  0  0  0  0  0  0  0
    2.8660   -0.8030    0.0000 C   0  0  0  0  0  0  0  0  0  0  0  0
    2.8660    1.1970    0.0000 C   0  0  0  0  0  0  0  0  0  0  0  0
    5.2619    0.1970    0.0000 C   0  0  0  0  0  0  0  0  0  0  0  0
    2.0000   -0.3030    0.0000 C   0  0  0  0  0  0  0  0  0  0  0  0
    2.0000    0.6970    0.0000 C   0  0  0  0  0  0  0  0  0  0  0  0
  1  2  1  0  0  0  0
  1  7  1  0  0  0  0
  2  3  1  0  0  0  0
  2  5  2  0  0  0  0
  3  4  1  0  0  0  0
  3  6  2  0  0  0  0
  4  7  2  0  0  0  0
  5  8  1  0  0  0  0
  6  9  1  0  0  0  0
  8  9  2  0  0  0  0
M  END
> <PUBCHEM_COMPOUND_CID>
798

> <PUBCHEM_COMPOUND_CANONICALIZED>
1

> <PUBCHEM_CACTVS_COMPLEXITY>
101

> <PUBCHEM_CACTVS_HBOND_ACCEPTOR>
0

> <PUBCHEM_CACTVS_HBOND_DONOR>
1

> <PUBCHEM_CACTVS_ROTATABLE_BOND>
0

> <PUBCHEM_CACTVS_SUBSKEYS>
AAADcYByAAAAAAAAAAAAAAAAAAAAAWAAAAAwAAAAAAAAAFgB8AAAHAAQAAAADAjBHgQ8wPLJkACgAzRnRACCgCAxAiAI2aA4ZJgIIOLAkZGEIAhgkADIyAcQgIAOAAAAAAACAAAAAAAAAAQAAAAAAAAAAA==

> <PUBCHEM_IUPAC_OPENEYE_NAME>
indole

> <PUBCHEM_IUPAC_CAS_NAME>
1~{H}-indole

> <PUBCHEM_IUPAC_NAME>
1~{H}-indole

> <PUBCHEM_IUPAC_SYSTEMATIC_NAME>
1~{H}-indole

> <PUBCHEM_IUPAC_TRADITIONAL_NAME>
indole

> <PUBCHEM_IUPAC_INCHI>
InChI=1S/C8H7N/c1-2-4-8-7(3-1)5-6-9-8/h1-6,9H

> <PUBCHEM_IUPAC_INCHIKEY>
SIKJAQJRHWYJAI-UHFFFAOYSA-N

> <PUBCHEM_XLOGP3>
2.1

> <PUBCHEM_EXACT_MASS>
117.058

> <PUBCHEM_MOLECULAR_FORMULA>
C8H7N

> <PUBCHEM_MOLECULAR_WEIGHT>
117.151

> <PUBCHEM_OPENEYE_CAN_SMILES>
C1=CC=C2C(=C1)C=CN2

> <PUBCHEM_OPENEYE_ISO_SMILES>
C1=CC=C2C(=C1)C=CN2

> <PUBCHEM_CACTVS_TPSA>
15.8

> <PUBCHEM_MONOISOTOPIC_WEIGHT>
117.058

> <PUBCHEM_TOTAL_CHARGE>
0

> <PUBCHEM_HEAVY_ATOM_COUNT>
9

> <PUBCHEM_ATOM_DEF_STEREO_COUNT>
0

> <PUBCHEM_ATOM_UDEF_STEREO_COUNT>
0

> <PUBCHEM_BOND_DEF_STEREO_COUNT>
0

> <PUBCHEM_BOND_UDEF_STEREO_COUNT>
0

> <PUBCHEM_ISOTOPIC_ATOM_COUNT>
0

> <PUBCHEM_COMPONENT_COUNT>
1

> <PUBCHEM_CACTVS_TAUTO_COUNT>
-1

> <PUBCHEM_COORDINATE_TYPE>
1
5
255

> <PUBCHEM_BONDANNOTATIONS>
1  2  8
1  7  8
2  3  8
2  5  8
3  4  8
3  6  8
4  7  8
5  8  8
6  9  8
8  9  8

$$$$
21954
  -OEChem-02061913072D

  8  8  0     0  0  0  0  0  0999 V2000
    2.0000   -0.6900    0.0000 O   0  0  0  0  0  0  0  0  0  0  0  0
    5.4641    1.3100    0.0000 O   0  0  0  0  0  0  0  0  0  0  0  0
    3.7320   -0.6900    0.0000 N   0  0  0  0  0  0  0  0  0  0  0  0
    4.5981   -0.1900    0.0000 N   0  0  0  0  0  0  0  0  0  0  0  0
    2.8660   -0.1900    0.0000 C   0  0  0  0  0  0  0  0  0  0  0  0
    4.5981    0.8100    0.0000 C   0  0  0  0  0  0  0  0  0  0  0  0
    2.8660    0.8100    0.0000 C   0  0  0  0  0  0  0  0  0  0  0  0
    3.7320    1.3100    0.0000 C   0  0  0  0  0  0  0  0  0  0  0  0
  1  5  2  0  0  0  0
  2  6  2  0  0  0  0
  3  4  1  0  0  0  0
  3  5  1  0  0  0  0
  4  6  1  0  0  0  0
  5  7  1  0  0  0  0
  6  8  1  0  0  0  0
  7  8  2  0  0  0  0
M  END
> <PUBCHEM_COMPOUND_CID>
21954

> <PUBCHEM_COMPOUND_CANONICALIZED>
1

> <PUBCHEM_CACTVS_COMPLEXITY>
143

> <PUBCHEM_CACTVS_HBOND_ACCEPTOR>
2

> <PUBCHEM_CACTVS_HBOND_DONOR>
2

> <PUBCHEM_CACTVS_ROTATABLE_BOND>
0

> <PUBCHEM_CACTVS_SUBSKEYS>
AAADcYBjMAAAAAAAAAAAAAAAAAAAAAAAAAAgAAAAAAAAAAAAAAAAHgAYAAAACACBgAAAAABiAACIACFSEACAAAAAAAIaKAAAAEAAAAAAAAAAAAAAEAAAAYAAAAAAAAAAAAAAAAAAAAAAAAAAAAAAAAAAAA==

> <PUBCHEM_IUPAC_OPENEYE_NAME>
1,2-dihydropyridazine-3,6-dione

> <PUBCHEM_IUPAC_CAS_NAME>
1,2-dihydropyridazine-3,6-dione

> <PUBCHEM_IUPAC_NAME>
1,2-dihydropyridazine-3,6-dione

> <PUBCHEM_IUPAC_SYSTEMATIC_NAME>
1,2-dihydropyridazine-3,6-dione

> <PUBCHEM_IUPAC_TRADITIONAL_NAME>
maleic hydrazide

> <PUBCHEM_IUPAC_INCHI>
InChI=1S/C4H4N2O2/c7-3-1-2-4(8)6-5-3/h1-2H,(H,5,7)(H,6,8)

> <PUBCHEM_IUPAC_INCHIKEY>
BGRDGMRNKXEXQD-UHFFFAOYSA-N

> <PUBCHEM_XLOGP3>
-0.8

> <PUBCHEM_EXACT_MASS>
112.027

> <PUBCHEM_MOLECULAR_FORMULA>
C4H4N2O2

> <PUBCHEM_MOLECULAR_WEIGHT>
112.088

> <PUBCHEM_OPENEYE_CAN_SMILES>
C1=CC(=O)NNC1=O

> <PUBCHEM_OPENEYE_ISO_SMILES>
C1=CC(=O)NNC1=O

> <PUBCHEM_CACTVS_TPSA>
58.2

> <PUBCHEM_MONOISOTOPIC_WEIGHT>
112.027

> <PUBCHEM_TOTAL_CHARGE>
0

> <PUBCHEM_HEAVY_ATOM_COUNT>
8

> <PUBCHEM_ATOM_DEF_STEREO_COUNT>
0

> <PUBCHEM_ATOM_UDEF_STEREO_COUNT>
0

> <PUBCHEM_BOND_DEF_STEREO_COUNT>
0

> <PUBCHEM_BOND_UDEF_STEREO_COUNT>
0

> <PUBCHEM_ISOTOPIC_ATOM_COUNT>
0

> <PUBCHEM_COMPONENT_COUNT>
1

> <PUBCHEM_CACTVS_TAUTO_COUNT>
-1

> <PUBCHEM_COORDINATE_TYPE>
1
5
255

> <PUBCHEM_BONDANNOTATIONS>
3  4  8
3  5  8
4  6  8
5  7  8
6  8  8
7  8  8

$$$$
7047
  -OEChem-02061913072D

 10 11  0     0  0  0  0  0  0999 V2000
    4.6660   -1.0000    0.0000 N   0  0  0  0  0  0  0  0  0  0  0  0
    3.8000    0.5000    0.0000 C   0  0  0  0  0  0  0  0  0  0  0  0
    3.8000   -0.5000    0.0000 C   0  0  0  0  0  0  0  0  0  0  0  0
    2.9061    1.0347    0.0000 C   0  0  0  0  0  0  0  0  0  0  0  0
    4.6660    1.0000    0.0000 C   0  0  0  0  0  0  0  0  0  0  0  0
    2.9061   -1.0347    0.0000 C   0  0  0  0  0  0  0  0  0  0  0  0
    2.0000    0.5208    0.0000 C   0  0  0  0  0  0  0  0  0  0  0  0
    2.0000   -0.5208    0.0000 C   0  0  0  0  0  0  0  0  0  0  0  0
    5.5321    0.5000    0.0000 C   0  0  0  0  0  0  0  0  0  0  0  0
    5.5321   -0.5000    0.0000 C   0  0  0  0  0  0  0  0  0  0  0  0
  1  3  1  0  0  0  0
  1 10  2  0  0  0  0
  2  3  1  0  0  0  0
  2  4  2  0  0  0  0
  2  5  1  0  0  0  0
  3  6  2  0  0  0  0
  4  7  1  0  0  0  0
  5  9  2  0  0  0  0
  6  8  1  0  0  0  0
  7  8  2  0  0  0  0
  9 10  1  0  0  0  0
M  END
> <PUBCHEM_COMPOUND_CID>
7047

> <PUBCHEM_COMPOUND_CANONICALIZED>
1

> <PUBCHEM_CACTVS_COMPLEXITY>
111

> <PUBCHEM_CACTVS_HBOND_ACCEPTOR>
1

> <PUBCHEM_CACTVS_HBOND_DONOR>
0

> <PUBCHEM_CACTVS_ROTATABLE_BOND>
0

> <PUBCHEM_CACTVS_SUBSKEYS>
AAADcYByAAAAAAAAAAAAAAAAAAAAAAAAAAA8QAAAAAAAAACx8AAAHAAAAAAADAjBHgQ8wPIIEACgAzRnRACCgCAxAiAI2CA4ZJgIIOLAkZGEIAhggADIyAcQgIAOAAAAAAACAAAAAAAAAAQAAAAAAAAAAA==

> <PUBCHEM_IUPAC_OPENEYE_NAME>
quinoline

> <PUBCHEM_IUPAC_CAS_NAME>
quinoline

> <PUBCHEM_IUPAC_NAME>
quinoline

> <PUBCHEM_IUPAC_SYSTEMATIC_NAME>
quinoline

> <PUBCHEM_IUPAC_TRADITIONAL_NAME>
quinoline

> <PUBCHEM_IUPAC_INCHI>
InChI=1S/C9H7N/c1-2-6-9-8(4-1)5-3-7-10-9/h1-7H

> <PUBCHEM_IUPAC_INCHIKEY>
SMWDFEZZVXVKRB-UHFFFAOYSA-N

> <PUBCHEM_XLOGP3>
2

> <PUBCHEM_EXACT_MASS>
129.058

> <PUBCHEM_MOLECULAR_FORMULA>
C9H7N

> <PUBCHEM_MOLECULAR_WEIGHT>
129.162

> <PUBCHEM_OPENEYE_CAN_SMILES>
C1=CC=C2C(=C1)C=CC=N2

> <PUBCHEM_OPENEYE_ISO_SMILES>
C1=CC=C2C(=C1)C=CC=N2

> <PUBCHEM_CACTVS_TPSA>
12.9

> <PUBCHEM_MONOISOTOPIC_WEIGHT>
129.058

> <PUBCHEM_TOTAL_CHARGE>
0

> <PUBCHEM_HEAVY_ATOM_COUNT>
10

> <PUBCHEM_ATOM_DEF_STEREO_COUNT>
0

> <PUBCHEM_ATOM_UDEF_STEREO_COUNT>
0

> <PUBCHEM_BOND_DEF_STEREO_COUNT>
0

> <PUBCHEM_BOND_UDEF_STEREO_COUNT>
0

> <PUBCHEM_ISOTOPIC_ATOM_COUNT>
0

> <PUBCHEM_COMPONENT_COUNT>
1

> <PUBCHEM_CACTVS_TAUTO_COUNT>
-1

> <PUBCHEM_COORDINATE_TYPE>
1
5
255

> <PUBCHEM_BONDANNOTATIONS>
1  10  8
1  3  8
2  3  8
2  4  8
2  5  8
3  6  8
4  7  8
5  9  8
6  8  8
7  8  8
9  10  8

$$$$
2758
  -OEChem-02061913062D

 11 12  0     0  0  0  0  0  0999 V2000
    2.7369    0.6573    0.0000 O   0  0  0  0  0  0  0  0  0  0  0  0
    3.9735   -0.1914    0.0000 C   0  0  0  0  0  0  0  0  0  0  0  0
    3.7147   -1.1573    0.0000 C   0  0  0  0  0  0  0  0  0  0  0  0
    3.6030    1.1573    0.0000 C   0  0  0  0  0  0  0  0  0  0  0  0
    5.3725   -0.7002    0.0000 C   0  0  0  0  0  0  0  0  0  0  0  0
    2.0000   -0.8096    0.0000 C   0  0  0  0  0  0  0  0  0  0  0  0
    2.3420   -1.7493    0.0000 C   0  0  0  0  0  0  0  0  0  0  0  0
    5.1137   -1.6661    0.0000 C   0  0  0  0  0  0  0  0  0  0  0  0
    3.4559   -2.1232    0.0000 C   0  0  0  0  0  0  0  0  0  0  0  0
    3.3441    2.1232    0.0000 C   0  0  0  0  0  0  0  0  0  0  0  0
    4.3101    1.8644    0.0000 C   0  0  0  0  0  0  0  0  0  0  0  0
  1  3  1  0  0  0  0
  1  4  1  0  0  0  0
  2  4  1  0  0  0  0
  2  5  1  0  0  0  0
  2  6  1  0  0  0  0
  3  7  1  0  0  0  0
  3  8  1  0  0  0  0
  3  9  1  0  0  0  0
  4 10  1  0  0  0  0
  4 11  1  0  0  0  0
  5  8  1  0  0  0  0
  6  7  1  0  0  0  0
M  END
> <PUBCHEM_COMPOUND_CID>
2758

> <PUBCHEM_COMPOUND_CANONICALIZED>
1

> <PUBCHEM_CACTVS_COMPLEXITY>
164

> <PUBCHEM_CACTVS_HBOND_ACCEPTOR>
1

> <PUBCHEM_CACTVS_HBOND_DONOR>
0

> <PUBCHEM_CACTVS_ROTATABLE_BOND>
0

> <PUBCHEM_CACTVS_SUBSKEYS>
AAADceBwIAAAAAAAAAAAAAAAAAAAAAAAAAA0SIAAAAAAAAAAAAAAGgAAAAAADUSAgAACAAAABAAAAAAAAAAAAAAAAAAAAAAAAAAAAAIAAAACAAAEAAAAAAGAwPAOgAAAAAAAAADAAAAAAAAAAAAAAAAAAA==

> <PUBCHEM_IUPAC_OPENEYE_NAME>
1,3,3-trimethyl-2-oxabicyclo[2.2.2]octane

> <PUBCHEM_IUPAC_CAS_NAME>
1,3,3-trimethyl-2-oxabicyclo[2.2.2]octane

> <PUBCHEM_IUPAC_NAME>
1,3,3-trimethyl-2-oxabicyclo[2.2.2]octane

> <PUBCHEM_IUPAC_SYSTEMATIC_NAME>
1,3,3-trimethyl-2-oxabicyclo[2.2.2]octane

> <PUBCHEM_IUPAC_TRADITIONAL_NAME>
1,3,3-trimethyl-2-oxabicyclo[2.2.2]octane

> <PUBCHEM_IUPAC_INCHI>
InChI=1S/C10H18O/c1-9(2)8-4-6-10(3,11-9)7-5-8/h8H,4-7H2,1-3H3

> <PUBCHEM_IUPAC_INCHIKEY>
WEEGYLXZBRQIMU-UHFFFAOYSA-N

> <PUBCHEM_XLOGP3>
2.5

> <PUBCHEM_EXACT_MASS>
154.136

> <PUBCHEM_MOLECULAR_FORMULA>
C10H18O

> <PUBCHEM_MOLECULAR_WEIGHT>
154.253

> <PUBCHEM_OPENEYE_CAN_SMILES>
CC1(C2CCC(O1)(CC2)C)C

> <PUBCHEM_OPENEYE_ISO_SMILES>
CC1(C2CCC(O1)(CC2)C)C

> <PUBCHEM_CACTVS_TPSA>
9.2

> <PUBCHEM_MONOISOTOPIC_WEIGHT>
154.136

> <PUBCHEM_TOTAL_CHARGE>
0

> <PUBCHEM_HEAVY_ATOM_COUNT>
11

> <PUBCHEM_ATOM_DEF_STEREO_COUNT>
0

> <PUBCHEM_ATOM_UDEF_STEREO_COUNT>
0

> <PUBCHEM_BOND_DEF_STEREO_COUNT>
0

> <PUBCHEM_BOND_UDEF_STEREO_COUNT>
0

> <PUBCHEM_ISOTOPIC_ATOM_COUNT>
0

> <PUBCHEM_COMPONENT_COUNT>
1

> <PUBCHEM_CACTVS_TAUTO_COUNT>
-1

> <PUBCHEM_COORDINATE_TYPE>
1
5
255

$$$$
6432644
  -OEChem-02061913372D

 28 30  0     1  0  0  0  0  0999 V2000
    5.4641   -4.8465    0.0000 O   0  0  0  0  0  0  0  0  0  0  0  0
    5.4641    1.1535    0.0000 C   0  0  3  0  0  0  0  0  0  0  0  0
    6.4103    1.4582    0.0000 C   0  0  3  0  0  0  0  0  0  0  0  0
    5.4641    0.1535    0.0000 C   0  0  3  0  0  0  0  0  0  0  0  0
    6.9939    0.6535    0.0000 C   0  0  0  0  0  0  0  0  0  0  0  0
    6.4103   -0.1512    0.0000 C   0  0  0  0  0  0  0  0  0  0  0  0
    4.5981    1.6535    0.0000 C   0  0  0  0  0  0  0  0  0  0  0  0
    6.7210    2.4087    0.0000 C   0  0  3  0  0  0  0  0  0  0  0  0
    4.5981   -0.3465    0.0000 C   0  0  0  0  0  0  0  0  0  0  0  0
    5.4641    2.1535    0.0000 C   0  0  0  0  0  0  0  0  0  0  0  0
    3.7320    1.1535    0.0000 C   0  0  0  0  0  0  0  0  0  0  0  0
    3.7320    0.1535    0.0000 C   0  0  0  0  0  0  0  0  0  0  0  0
    7.6995    2.6150    0.0000 C   0  0  0  0  0  0  0  0  0  0  0  0
    6.0531    3.1530    0.0000 C   0  0  0  0  0  0  0  0  0  0  0  0
    4.5981   -1.3465    0.0000 C   0  0  0  0  0  0  0  0  0  0  0  0
    8.0102    3.5655    0.0000 C   0  0  0  0  0  0  0  0  0  0  0  0
    8.9887    3.7717    0.0000 C   0  0  0  0  0  0  0  0  0  0  0  0
    3.7320   -1.8465    0.0000 C   0  0  0  0  0  0  0  0  0  0  0  0
    9.2993    4.7222    0.0000 C   0  0  0  0  0  0  0  0  0  0  0  0
    3.7320   -2.8465    0.0000 C   0  0  0  0  0  0  0  0  0  0  0  0
    4.5981   -3.3465    0.0000 C   0  0  0  0  0  0  0  0  0  0  0  0
   10.2778    4.9284    0.0000 C   0  0  0  0  0  0  0  0  0  0  0  0
    8.6315    5.4665    0.0000 C   0  0  0  0  0  0  0  0  0  0  0  0
    2.8660   -3.3465    0.0000 C   0  0  0  0  0  0  0  0  0  0  0  0
    4.5981   -4.3465    0.0000 C   0  0  2  0  0  0  0  0  0  0  0  0
    2.8660   -4.3465    0.0000 C   0  0  0  0  0  0  0  0  0  0  0  0
    3.7320   -4.8465    0.0000 C   0  0  0  0  0  0  0  0  0  0  0  0
    2.0000   -2.8465    0.0000 C   0  0  0  0  0  0  0  0  0  0  0  0
 25  1  1  1  0  0  0
  2  3  1  0  0  0  0
  2  4  1  0  0  0  0
  2  7  1  0  0  0  0
  2 10  1  0  0  0  0
  3  5  1  0  0  0  0
  3  8  1  0  0  0  0
  4  6  1  0  0  0  0
  4  9  1  0  0  0  0
  5  6  1  0  0  0  0
  7 11  1  0  0  0  0
  8 13  1  0  0  0  0
  8 14  1  0  0  0  0
  9 12  1  0  0  0  0
  9 15  2  0  0  0  0
 11 12  1  0  0  0  0
 13 16  1  0  0  0  0
 15 18  1  0  0  0  0
 16 17  1  0  0  0  0
 17 19  1  0  0  0  0
 18 20  2  0  0  0  0
 19 22  1  0  0  0  0
 19 23  1  0  0  0  0
 20 21  1  0  0  0  0
 20 24  1  0  0  0  0
 21 25  1  0  0  0  0
 24 26  1  0  0  0  0
 24 28  2  0  0  0  0
 25 27  1  0  0  0  0
 26 27  1  0  0  0  0
M  END
> <PUBCHEM_COMPOUND_CID>
6432644

> <PUBCHEM_COMPOUND_CANONICALIZED>
1

> <PUBCHEM_CACTVS_COMPLEXITY>
610

> <PUBCHEM_CACTVS_HBOND_ACCEPTOR>
1

> <PUBCHEM_CACTVS_HBOND_DONOR>
1

> <PUBCHEM_CACTVS_ROTATABLE_BOND>
6

> <PUBCHEM_CACTVS_SUBSKEYS>
AAADcfB4IAAAAAAAAAAAAAAAAAAAAYAAAAAwYAAAAAAAAGAAAAAAGgAACAAADxSggAICAAAAAgCAAiBCAAAAAAAgAAAACAAAAAgIEAIAAQAAQAAEwAAIgAOAwMAPgAAAAAAAAAAAAAAAACAAAQAACAAAAA==

> <PUBCHEM_IUPAC_OPENEYE_NAME>
(1~{S},3~{E})-3-[(2~{E})-2-[1-(1,5-dimethylhexyl)-7~{a}-methyl-2,3,3~{a},5,6,7-hexahydro-1~{H}-inden-4-ylidene]ethylidene]-4-methylene-cyclohexanol

> <PUBCHEM_IUPAC_CAS_NAME>
(1~{S},3~{E})-3-[(2~{E})-2-[7~{a}-methyl-1-(6-methylheptan-2-yl)-2,3,3~{a},5,6,7-hexahydro-1~{H}-inden-4-ylidene]ethylidene]-4-methylene-1-cyclohexanol

> <PUBCHEM_IUPAC_NAME>
(1~{S},3~{E})-3-[(2~{E})-2-[7~{a}-methyl-1-(6-methylheptan-2-yl)-2,3,3~{a},5,6,7-hexahydro-1~{H}-inden-4-ylidene]ethylidene]-4-methylidenecyclohexan-1-ol

> <PUBCHEM_IUPAC_SYSTEMATIC_NAME>
(1~{S},3~{E})-3-[(2~{E})-2-[7~{a}-methyl-1-(6-methylheptan-2-yl)-2,3,3~{a},5,6,7-hexahydro-1~{H}-inden-4-ylidene]ethylidene]-4-methylidene-cyclohexan-1-ol

> <PUBCHEM_IUPAC_TRADITIONAL_NAME>
(1~{S},3~{E})-3-[(2~{E})-2-[1-(1,5-dimethylhexyl)-7~{a}-methyl-2,3,3~{a},5,6,7-hexahydro-1~{H}-inden-4-ylidene]ethylidene]-4-methylene-cyclohexanol

> <PUBCHEM_IUPAC_INCHI>
InChI=1S/C27H44O/c1-19(2)8-6-9-21(4)25-15-16-26-22(10-7-17-27(25,26)5)12-13-23-18-24(28)14-11-20(23)3/h12-13,19,21,24-26,28H,3,6-11,14-18H2,1-2,4-5H3/b22-12+,23-13+/t21?,24-,25?,26?,27?/m0/s1

> <PUBCHEM_IUPAC_INCHIKEY>
QYSXJUFSXHHAJI-HLHQRPOOSA-N

> <PUBCHEM_XLOGP3_AA>
7.9

> <PUBCHEM_EXACT_MASS>
384.339

> <PUBCHEM_MOLECULAR_FORMULA>
C27H44O

> <PUBCHEM_MOLECULAR_WEIGHT>
384.648

> <PUBCHEM_OPENEYE_CAN_SMILES>
CC(C)CCCC(C)C1CCC2C1(CCCC2=CC=C3CC(CCC3=C)O)C

> <PUBCHEM_OPENEYE_ISO_SMILES>
CC(C)CCCC(C)C1CCC\2C1(CCC/C2=C\C=C\3/C[C@H](CCC3=C)O)C

> <PUBCHEM_CACTVS_TPSA>
20.2

> <PUBCHEM_MONOISOTOPIC_WEIGHT>
384.339

> <PUBCHEM_TOTAL_CHARGE>
0

> <PUBCHEM_HEAVY_ATOM_COUNT>
28

> <PUBCHEM_ATOM_DEF_STEREO_COUNT>
1

> <PUBCHEM_ATOM_UDEF_STEREO_COUNT>
4

> <PUBCHEM_BOND_DEF_STEREO_COUNT>
2

> <PUBCHEM_BOND_UDEF_STEREO_COUNT>
0

> <PUBCHEM_ISOTOPIC_ATOM_COUNT>
0

> <PUBCHEM_COMPONENT_COUNT>
1

> <PUBCHEM_CACTVS_TAUTO_COUNT>
-1

> <PUBCHEM_COORDINATE_TYPE>
1
5
255

> <PUBCHEM_BONDANNOTATIONS>
25  1  5
2  10  3
3  5  3
4  6  3
8  14  3

$$$$
7947
  -OEChem-02061913072D

  9  9  0     0  0  0  0  0  0999 V2000
    3.7320    0.5000    0.0000 C   0  0  0  0  0  0  0  0  0  0  0  0
    2.8660   -1.0000    0.0000 C   0  0  0  0  0  0  0  0  0  0  0  0
    4.5981   -1.0000    0.0000 C   0  0  0  0  0  0  0  0  0  0  0  0
    2.8660    0.0000    0.0000 C   0  0  0  0  0  0  0  0  0  0  0  0
    4.5981    0.0000    0.0000 C   0  0  0  0  0  0  0  0  0  0  0  0
    3.7320   -1.5000    0.0000 C   0  0  0  0  0  0  0  0  0  0  0  0
    2.0000   -1.5000    0.0000 C   0  0  0  0  0  0  0  0  0  0  0  0
    5.4641   -1.5000    0.0000 C   0  0  0  0  0  0  0  0  0  0  0  0
    3.7320    1.5000    0.0000 C   0  0  0  0  0  0  0  0  0  0  0  0
  1  4  2  0  0  0  0
  1  5  1  0  0  0  0
  1  9  1  0  0  0  0
  2  4  1  0  0  0  0
  2  6  2  0  0  0  0
  2  7  1  0  0  0  0
  3  5  2  0  0  0  0
  3  6  1  0  0  0  0
  3  8  1  0  0  0  0
M  END
> <PUBCHEM_COMPOUND_CID>
7947

> <PUBCHEM_COMPOUND_CANONICALIZED>
1

> <PUBCHEM_CACTVS_COMPLEXITY>
55

> <PUBCHEM_CACTVS_HBOND_ACCEPTOR>
0

> <PUBCHEM_CACTVS_HBOND_DONOR>
0

> <PUBCHEM_CACTVS_ROTATABLE_BOND>
0

> <PUBCHEM_CACTVS_SUBSKEYS>
AAADccBwAAAAAAAAAAAAAAAAAAAAAAAAAAAwAAAAAAAAAAABAAAAGAAAAAAADACAGAAyAIAAAACAAiBCAAACAAAgAAAAiAAAAIgIICKAERCAIAAggAAIiAcAgEAOAAACAAAAAAAAAAQAAAAAAAAAAAAAAA==

> <PUBCHEM_IUPAC_OPENEYE_NAME>
mesitylene

> <PUBCHEM_IUPAC_CAS_NAME>
1,3,5-trimethylbenzene

> <PUBCHEM_IUPAC_NAME>
1,3,5-trimethylbenzene

> <PUBCHEM_IUPAC_SYSTEMATIC_NAME>
1,3,5-trimethylbenzene

> <PUBCHEM_IUPAC_TRADITIONAL_NAME>
mesitylene

> <PUBCHEM_IUPAC_INCHI>
InChI=1S/C9H12/c1-7-4-8(2)6-9(3)5-7/h4-6H,1-3H3

> <PUBCHEM_IUPAC_INCHIKEY>
AUHZEENZYGFFBQ-UHFFFAOYSA-N

> <PUBCHEM_XLOGP3>
3.4

> <PUBCHEM_EXACT_MASS>
120.094

> <PUBCHEM_MOLECULAR_FORMULA>
C9H12

> <PUBCHEM_MOLECULAR_WEIGHT>
120.195

> <PUBCHEM_OPENEYE_CAN_SMILES>
CC1=CC(=CC(=C1)C)C

> <PUBCHEM_OPENEYE_ISO_SMILES>
CC1=CC(=CC(=C1)C)C

> <PUBCHEM_CACTVS_TPSA>
0

> <PUBCHEM_MONOISOTOPIC_WEIGHT>
120.094

> <PUBCHEM_TOTAL_CHARGE>
0

> <PUBCHEM_HEAVY_ATOM_COUNT>
9

> <PUBCHEM_ATOM_DEF_STEREO_COUNT>
0

> <PUBCHEM_ATOM_UDEF_STEREO_COUNT>
0

> <PUBCHEM_BOND_DEF_STEREO_COUNT>
0

> <PUBCHEM_BOND_UDEF_STEREO_COUNT>
0

> <PUBCHEM_ISOTOPIC_ATOM_COUNT>
0

> <PUBCHEM_COMPONENT_COUNT>
1

> <PUBCHEM_CACTVS_TAUTO_COUNT>
-1

> <PUBCHEM_COORDINATE_TYPE>
1
5
255

> <PUBCHEM_BONDANNOTATIONS>
1  4  8
1  5  8
2  4  8
2  6  8
3  5  8
3  6  8

$$$$
16134267
  -OEChem-02061913562D

122132  0     1  0  0  0  0  0999 V2000
   12.9292    1.0000    0.0000 O   0  0  0  0  0  0  0  0  0  0  0  0
   12.9292   -2.0000    0.0000 O   0  0  0  0  0  0  0  0  0  0  0  0
   11.1972   -1.0000    0.0000 O   0  0  0  0  0  0  0  0  0  0  0  0
   14.6613   -1.0000    0.0000 O   0  0  0  0  0  0  0  0  0  0  0  0
   14.6613    1.0000    0.0000 O   0  0  0  0  0  0  0  0  0  0  0  0
   11.1972    2.0000    0.0000 O   0  0  0  0  0  0  0  0  0  0  0  0
   11.1972   -2.0000    0.0000 O   0  0  0  0  0  0  0  0  0  0  0  0
   10.3312    0.5000    0.0000 O   0  0  0  0  0  0  0  0  0  0  0  0
   15.5273    0.5000    0.0000 O   0  0  0  0  0  0  0  0  0  0  0  0
   13.7953    2.5000    0.0000 O   0  0  0  0  0  0  0  0  0  0  0  0
    9.4651    2.0000    0.0000 O   0  0  0  0  0  0  0  0  0  0  0  0
   10.3312   -5.5000    0.0000 O   0  0  0  0  0  0  0  0  0  0  0  0
    6.8671   -0.5000    0.0000 O   0  0  0  0  0  0  0  0  0  0  0  0
   17.2594   -3.5000    0.0000 O   0  0  0  0  0  0  0  0  0  0  0  0
   13.7953   -5.5000    0.0000 O   0  0  0  0  0  0  0  0  0  0  0  0
    8.5991   -3.5000    0.0000 O   0  0  0  0  0  0  0  0  0  0  0  0
   18.9914   -0.5000    0.0000 O   0  0  0  0  0  0  0  0  0  0  0  0
   18.1254    2.0000    0.0000 O   0  0  0  0  0  0  0  0  0  0  0  0
   12.0632   -6.5000    0.0000 O   0  0  0  0  0  0  0  0  0  0  0  0
    6.8671   -2.5000    0.0000 O   0  0  0  0  0  0  0  0  0  0  0  0
   16.3933    5.0000    0.0000 O   0  0  0  0  0  0  0  0  0  0  0  0
   18.9914   -2.5000    0.0000 O   0  0  0  0  0  0  0  0  0  0  0  0
   18.1254    4.0000    0.0000 O   0  0  0  0  0  0  0  0  0  0  0  0
   12.0632    5.5000    0.0000 O   0  0  0  0  0  0  0  0  0  0  0  0
    8.5991    5.5000    0.0000 O   0  0  0  0  0  0  0  0  0  0  0  0
   10.3312    6.5000    0.0000 O   0  0  0  0  0  0  0  0  0  0  0  0
   11.1972   -7.0000    0.0000 O   0  0  0  0  0  0  0  0  0  0  0  0
    6.0010   -2.0000    0.0000 O   0  0  0  0  0  0  0  0  0  0  0  0
   18.9914   -3.5000    0.0000 O   0  0  0  0  0  0  0  0  0  0  0  0
   18.9914    3.5000    0.0000 O   0  0  0  0  0  0  0  0  0  0  0  0
   11.1972    7.0000    0.0000 O   0  0  0  0  0  0  0  0  0  0  0  0
    6.8671   -6.5000    0.0000 O   0  0  0  0  0  0  0  0  0  0  0  0
    8.5991   -9.5000    0.0000 O   0  0  0  0  0  0  0  0  0  0  0  0
    4.2690    2.0000    0.0000 O   0  0  0  0  0  0  0  0  0  0  0  0
    2.5369   -1.0000    0.0000 O   0  0  0  0  0  0  0  0  0  0  0  0
   19.8574   -7.0000    0.0000 O   0  0  0  0  0  0  0  0  0  0  0  0
   16.3933   -7.0000    0.0000 O   0  0  0  0  0  0  0  0  0  0  0  0
    6.8671   -8.5000    0.0000 O   0  0  0  0  0  0  0  0  0  0  0  0
    2.5369    1.0000    0.0000 O   0  0  0  0  0  0  0  0  0  0  0  0
   22.4555    2.5000    0.0000 O   0  0  0  0  0  0  0  0  0  0  0  0
   20.7235   -0.5000    0.0000 O   0  0  0  0  0  0  0  0  0  0  0  0
   18.1254   -8.0000    0.0000 O   0  0  0  0  0  0  0  0  0  0  0  0
   22.4555    0.5000    0.0000 O   0  0  0  0  0  0  0  0  0  0  0  0
   15.5273    6.5000    0.0000 O   0  0  0  0  0  0  0  0  0  0  0  0
   13.7953    9.5000    0.0000 O   0  0  0  0  0  0  0  0  0  0  0  0
   15.5273    8.5000    0.0000 O   0  0  0  0  0  0  0  0  0  0  0  0
   12.9292   -1.0000    0.0000 C   0  0  1  0  0  0  0  0  0  0  0  0
   12.0632   -0.5000    0.0000 C   0  0  1  0  0  0  0  0  0  0  0  0
   13.7953   -0.5000    0.0000 C   0  0  2  0  0  0  0  0  0  0  0  0
   12.0632    0.5000    0.0000 C   0  0  1  0  0  0  0  0  0  0  0  0
   13.7953    0.5000    0.0000 C   0  0  2  0  0  0  0  0  0  0  0  0
   11.1972    1.0000    0.0000 C   0  0  0  0  0  0  0  0  0  0  0  0
   12.0632   -2.5000    0.0000 C   0  0  0  0  0  0  0  0  0  0  0  0
   10.3312   -0.5000    0.0000 C   0  0  0  0  0  0  0  0  0  0  0  0
   15.5273   -0.5000    0.0000 C   0  0  0  0  0  0  0  0  0  0  0  0
   14.6613    2.0000    0.0000 C   0  0  0  0  0  0  0  0  0  0  0  0
   12.0632   -3.5000    0.0000 C   0  0  0  0  0  0  0  0  0  0  0  0
    9.4651   -1.0000    0.0000 C   0  0  0  0  0  0  0  0  0  0  0  0
   16.3933   -1.0000    0.0000 C   0  0  0  0  0  0  0  0  0  0  0  0
   10.3312    2.5000    0.0000 C   0  0  0  0  0  0  0  0  0  0  0  0
   15.5273    2.5000    0.0000 C   0  0  0  0  0  0  0  0  0  0  0  0
   10.3312    3.5000    0.0000 C   0  0  0  0  0  0  0  0  0  0  0  0
   11.1972   -4.0000    0.0000 C   0  0  0  0  0  0  0  0  0  0  0  0
    8.5991   -0.5000    0.0000 C   0  0  0  0  0  0  0  0  0  0  0  0
   12.9292   -4.0000    0.0000 C   0  0  0  0  0  0  0  0  0  0  0  0
    9.4651   -2.0000    0.0000 C   0  0  0  0  0  0  0  0  0  0  0  0
   16.3933   -2.0000    0.0000 C   0  0  0  0  0  0  0  0  0  0  0  0
   17.2594   -0.5000    0.0000 C   0  0  0  0  0  0  0  0  0  0  0  0
   16.3933    2.0000    0.0000 C   0  0  0  0  0  0  0  0  0  0  0  0
   15.5273    3.5000    0.0000 C   0  0  0  0  0  0  0  0  0  0  0  0
   11.1972   -5.0000    0.0000 C   0  0  0  0  0  0  0  0  0  0  0  0
    7.7331   -1.0000    0.0000 C   0  0  0  0  0  0  0  0  0  0  0  0
   12.9292   -5.0000    0.0000 C   0  0  0  0  0  0  0  0  0  0  0  0
    8.5991   -2.5000    0.0000 C   0  0  0  0  0  0  0  0  0  0  0  0
   17.2594   -2.5000    0.0000 C   0  0  0  0  0  0  0  0  0  0  0  0
   18.1254   -1.0000    0.0000 C   0  0  0  0  0  0  0  0  0  0  0  0
   11.1972    4.0000    0.0000 C   0  0  0  0  0  0  0  0  0  0  0  0
    9.4651    4.0000    0.0000 C   0  0  0  0  0  0  0  0  0  0  0  0
   12.0632   -5.5000    0.0000 C   0  0  0  0  0  0  0  0  0  0  0  0
    7.7331   -2.0000    0.0000 C   0  0  0  0  0  0  0  0  0  0  0  0
   17.2594    2.5000    0.0000 C   0  0  0  0  0  0  0  0  0  0  0  0
   16.3933    4.0000    0.0000 C   0  0  0  0  0  0  0  0  0  0  0  0
   18.1254   -2.0000    0.0000 C   0  0  0  0  0  0  0  0  0  0  0  0
   17.2594    3.5000    0.0000 C   0  0  0  0  0  0  0  0  0  0  0  0
   11.1972    5.0000    0.0000 C   0  0  0  0  0  0  0  0  0  0  0  0
    9.4651    5.0000    0.0000 C   0  0  0  0  0  0  0  0  0  0  0  0
   10.3312    5.5000    0.0000 C   0  0  0  0  0  0  0  0  0  0  0  0
   10.3312   -6.5000    0.0000 C   0  0  0  0  0  0  0  0  0  0  0  0
    6.0010   -1.0000    0.0000 C   0  0  0  0  0  0  0  0  0  0  0  0
   18.1254   -4.0000    0.0000 C   0  0  0  0  0  0  0  0  0  0  0  0
   18.9914    2.5000    0.0000 C   0  0  0  0  0  0  0  0  0  0  0  0
    9.4651   -7.0000    0.0000 C   0  0  0  0  0  0  0  0  0  0  0  0
    5.1350   -0.5000    0.0000 C   0  0  0  0  0  0  0  0  0  0  0  0
   12.0632    6.5000    0.0000 C   0  0  0  0  0  0  0  0  0  0  0  0
   18.1254   -5.0000    0.0000 C   0  0  0  0  0  0  0  0  0  0  0  0
   19.8574    2.0000    0.0000 C   0  0  0  0  0  0  0  0  0  0  0  0
   12.9292    7.0000    0.0000 C   0  0  0  0  0  0  0  0  0  0  0  0
    9.4651   -8.0000    0.0000 C   0  0  0  0  0  0  0  0  0  0  0  0
    8.5991   -6.5000    0.0000 C   0  0  0  0  0  0  0  0  0  0  0  0
    4.2690   -1.0000    0.0000 C   0  0  0  0  0  0  0  0  0  0  0  0
    5.1350    0.5000    0.0000 C   0  0  0  0  0  0  0  0  0  0  0  0
   17.2594   -5.5000    0.0000 C   0  0  0  0  0  0  0  0  0  0  0  0
   18.9914   -5.5000    0.0000 C   0  0  0  0  0  0  0  0  0  0  0  0
   19.8574    1.0000    0.0000 C   0  0  0  0  0  0  0  0  0  0  0  0
   20.7235    2.5000    0.0000 C   0  0  0  0  0  0  0  0  0  0  0  0
    7.7331   -7.0000    0.0000 C   0  0  0  0  0  0  0  0  0  0  0  0
    8.5991   -8.5000    0.0000 C   0  0  0  0  0  0  0  0  0  0  0  0
    4.2690    1.0000    0.0000 C   0  0  0  0  0  0  0  0  0  0  0  0
    3.4030   -0.5000    0.0000 C   0  0  0  0  0  0  0  0  0  0  0  0
   18.9914   -6.5000    0.0000 C   0  0  0  0  0  0  0  0  0  0  0  0
   17.2594   -6.5000    0.0000 C   0  0  0  0  0  0  0  0  0  0  0  0
   12.9292    8.0000    0.0000 C   0  0  0  0  0  0  0  0  0  0  0  0
   13.7953    6.5000    0.0000 C   0  0  0  0  0  0  0  0  0  0  0  0
    7.7331   -8.0000    0.0000 C   0  0  0  0  0  0  0  0  0  0  0  0
    3.4030    0.5000    0.0000 C   0  0  0  0  0  0  0  0  0  0  0  0
   21.5895    2.0000    0.0000 C   0  0  0  0  0  0  0  0  0  0  0  0
   20.7235    0.5000    0.0000 C   0  0  0  0  0  0  0  0  0  0  0  0
   18.1254   -7.0000    0.0000 C   0  0  0  0  0  0  0  0  0  0  0  0
   21.5895    1.0000    0.0000 C   0  0  0  0  0  0  0  0  0  0  0  0
   14.6613    7.0000    0.0000 C   0  0  0  0  0  0  0  0  0  0  0  0
   13.7953    8.5000    0.0000 C   0  0  0  0  0  0  0  0  0  0  0  0
   14.6613    8.0000    0.0000 C   0  0  0  0  0  0  0  0  0  0  0  0
  1 50  1  0  0  0  0
  1 51  1  0  0  0  0
 47  2  1  1  0  0  0
  2 53  1  0  0  0  0
 48  3  1  6  0  0  0
  3 54  1  0  0  0  0
 49  4  1  6  0  0  0
  4 55  1  0  0  0  0
 51  5  1  6  0  0  0
  5 56  1  0  0  0  0
  6 52  1  0  0  0  0
  6 60  1  0  0  0  0
  7 53  2  0  0  0  0
  8 54  2  0  0  0  0
  9 55  2  0  0  0  0
 10 56  2  0  0  0  0
 11 60  2  0  0  0  0
 12 71  1  0  0  0  0
 12 88  1  0  0  0  0
 13 72  1  0  0  0  0
 13 89  1  0  0  0  0
 14 75  1  0  0  0  0
 14 90  1  0  0  0  0
 15 73  1  0  0  0  0
 16 74  1  0  0  0  0
 17 76  1  0  0  0  0
 18 81  1  0  0  0  0
 18 91  1  0  0  0  0
 19 79  1  0  0  0  0
 20 80  1  0  0  0  0
 21 82  1  0  0  0  0
 22 83  1  0  0  0  0
 23 84  1  0  0  0  0
 24 85  1  0  0  0  0
 24 94  1  0  0  0  0
 25 86  1  0  0  0  0
 26 87  1  0  0  0  0
 27 88  2  0  0  0  0
 28 89  2  0  0  0  0
 29 90  2  0  0  0  0
 30 91  2  0  0  0  0
 31 94  2  0  0  0  0
 32106  1  0  0  0  0
 33107  1  0  0  0  0
 34108  1  0  0  0  0
 35109  1  0  0  0  0
 36110  1  0  0  0  0
 37111  1  0  0  0  0
 38114  1  0  0  0  0
 39115  1  0  0  0  0
 40116  1  0  0  0  0
 41117  1  0  0  0  0
 42118  1  0  0  0  0
 43119  1  0  0  0  0
 44120  1  0  0  0  0
 45121  1  0  0  0  0
 46122  1  0  0  0  0
 47 48  1  0  0  0  0
 47 49  1  0  0  0  0
 48 50  1  0  0  0  0
 49 51  1  0  0  0  0
 50 52  1  1  0  0  0
 53 57  1  0  0  0  0
 54 58  1  0  0  0  0
 55 59  1  0  0  0  0
 56 61  1  0  0  0  0
 57 63  1  0  0  0  0
 57 65  2  0  0  0  0
 58 64  1  0  0  0  0
 58 66  2  0  0  0  0
 59 67  1  0  0  0  0
 59 68  2  0  0  0  0
 60 62  1  0  0  0  0
 61 69  1  0  0  0  0
 61 70  2  0  0  0  0
 62 77  1  0  0  0  0
 62 78  2  0  0  0  0
 63 71  2  0  0  0  0
 64 72  2  0  0  0  0
 65 73  1  0  0  0  0
 66 74  1  0  0  0  0
 67 75  2  0  0  0  0
 68 76  1  0  0  0  0
 69 81  2  0  0  0  0
 70 82  1  0  0  0  0
 71 79  1  0  0  0  0
 72 80  1  0  0  0  0
 73 79  2  0  0  0  0
 74 80  2  0  0  0  0
 75 83  1  0  0  0  0
 76 83  2  0  0  0  0
 77 85  2  0  0  0  0
 78 86  1  0  0  0  0
 81 84  1  0  0  0  0
 82 84  2  0  0  0  0
 85 87  1  0  0  0  0
 86 87  2  0  0  0  0
 88 92  1  0  0  0  0
 89 93  1  0  0  0  0
 90 95  1  0  0  0  0
 91 96  1  0  0  0  0
 92 98  2  0  0  0  0
 92 99  1  0  0  0  0
 93100  2  0  0  0  0
 93101  1  0  0  0  0
 94 97  1  0  0  0  0
 95102  2  0  0  0  0
 95103  1  0  0  0  0
 96104  2  0  0  0  0
 96105  1  0  0  0  0
 97112  2  0  0  0  0
 97113  1  0  0  0  0
 98107  1  0  0  0  0
 99106  2  0  0  0  0
100109  1  0  0  0  0
101108  2  0  0  0  0
102111  1  0  0  0  0
103110  2  0  0  0  0
104117  1  0  0  0  0
105116  2  0  0  0  0
106114  1  0  0  0  0
107114  2  0  0  0  0
108115  1  0  0  0  0
109115  2  0  0  0  0
110118  1  0  0  0  0
111118  2  0  0  0  0
112121  1  0  0  0  0
113120  2  0  0  0  0
116119  1  0  0  0  0
117119  2  0  0  0  0
120122  1  0  0  0  0
121122  2  0  0  0  0
M  END
> <PUBCHEM_COMPOUND_CID>
16134267

> <PUBCHEM_COMPOUND_CANONICALIZED>
1

> <PUBCHEM_CACTVS_COMPLEXITY>
3570

> <PUBCHEM_CACTVS_HBOND_ACCEPTOR>
46

> <PUBCHEM_CACTVS_HBOND_DONOR>
25

> <PUBCHEM_CACTVS_ROTATABLE_BOND>
31

> <PUBCHEM_CACTVS_SUBSKEYS>
AAADcfB8PgAAAAAAAAAAAAAAAAAAAAAAAAA0YMGDAAAAAAABVAAAGgAACAAADBSwmAMwDoAABgCIAiDSCAACCAAkIAAAiAEGiMgdJzKGNRqieyOlwBUPuYfK7DzOIAABCAAAQABAAAIQAACAAAAAAAAAAA==

> <PUBCHEM_IUPAC_OPENEYE_NAME>
[2,3-dihydroxy-5-[[(2~{R},3~{R},4~{S},5~{R},6~{R})-3,4,5,6-tetrakis[[3,4-dihydroxy-5-(3,4,5-trihydroxybenzoyl)oxy-benzoyl]oxy]tetrahydropyran-2-yl]methoxycarbonyl]phenyl] 3,4,5-trihydroxybenzoate

> <PUBCHEM_IUPAC_CAS_NAME>
3,4,5-trihydroxybenzoic acid [2,3-dihydroxy-5-[oxo-[[(2~{R},3~{R},4~{S},5~{R},6~{R})-3,4,5,6-tetrakis[[3,4-dihydroxy-5-[oxo-(3,4,5-trihydroxyphenyl)methoxy]phenyl]-oxomethoxy]-2-oxanyl]methoxy]methyl]phenyl] ester

> <PUBCHEM_IUPAC_NAME>
[2,3-dihydroxy-5-[[(2~{R},3~{R},4~{S},5~{R},6~{R})-3,4,5,6-tetrakis[[3,4-dihydroxy-5-(3,4,5-trihydroxybenzoyl)oxybenzoyl]oxy]oxan-2-yl]methoxycarbonyl]phenyl] 3,4,5-trihydroxybenzoate

> <PUBCHEM_IUPAC_SYSTEMATIC_NAME>
[2,3-bis(oxidanyl)-5-[[(2~{R},3~{R},4~{S},5~{R},6~{R})-3,4,5,6-tetrakis[[3,4-bis(oxidanyl)-5-[3,4,5-tris(oxidanyl)phenyl]carbonyloxy-phenyl]carbonyloxy]oxan-2-yl]methoxycarbonyl]phenyl] 3,4,5-tris(oxidanyl)benzoate

> <PUBCHEM_IUPAC_TRADITIONAL_NAME>
3,4,5-trihydroxybenzoic acid [2,3-dihydroxy-5-[[(2~{R},3~{R},4~{S},5~{R},6~{R})-3,4,5,6-tetrakis[(3-galloyloxy-4,5-dihydroxy-benzoyl)oxy]tetrahydropyran-2-yl]methoxycarbonyl]phenyl] ester

> <PUBCHEM_IUPAC_INCHI>
InChI=1S/C76H52O46/c77-32-1-22(2-33(78)53(32)92)67(103)113-47-16-27(11-42(87)58(47)97)66(102)112-21-52-63(119-72(108)28-12-43(88)59(98)48(17-28)114-68(104)23-3-34(79)54(93)35(80)4-23)64(120-73(109)29-13-44(89)60(99)49(18-29)115-69(105)24-5-36(81)55(94)37(82)6-24)65(121-74(110)30-14-45(90)61(100)50(19-30)116-70(106)25-7-38(83)56(95)39(84)8-25)76(118-52)122-75(111)31-15-46(91)62(101)51(20-31)117-71(107)26-9-40(85)57(96)41(86)10-26/h1-20,52,63-65,76-101H,21H2/t52-,63-,64+,65-,76-/m1/s1

> <PUBCHEM_IUPAC_INCHIKEY>
LRBQNJMCXXYXIU-NRMVVENXSA-N

> <PUBCHEM_XLOGP3_AA>
6.2

> <PUBCHEM_EXACT_MASS>
1700.173

> <PUBCHEM_MOLECULAR_FORMULA>
C76H52O46

> <PUBCHEM_MOLECULAR_WEIGHT>
1701.206

> <PUBCHEM_OPENEYE_CAN_SMILES>
C1=C(C=C(C(=C1O)O)O)C(=O)OC2=CC(=CC(=C2O)O)C(=O)OCC3C(C(C(C(O3)OC(=O)C4=CC(=C(C(=C4)OC(=O)C5=CC(=C(C(=C5)O)O)O)O)O)OC(=O)C6=CC(=C(C(=C6)OC(=O)C7=CC(=C(C(=C7)O)O)O)O)O)OC(=O)C8=CC(=C(C(=C8)OC(=O)C9=CC(=C(C(=C9)O)O)O)O)O)OC(=O)C1=CC(=C(C(=C1)OC(=O)C1=CC(=C(C(=C1)O)O)O)O)O

> <PUBCHEM_OPENEYE_ISO_SMILES>
C1=C(C=C(C(=C1O)O)O)C(=O)OC2=CC(=CC(=C2O)O)C(=O)OC[C@@H]3[C@H]([C@@H]([C@H]([C@H](O3)OC(=O)C4=CC(=C(C(=C4)OC(=O)C5=CC(=C(C(=C5)O)O)O)O)O)OC(=O)C6=CC(=C(C(=C6)OC(=O)C7=CC(=C(C(=C7)O)O)O)O)O)OC(=O)C8=CC(=C(C(=C8)OC(=O)C9=CC(=C(C(=C9)O)O)O)O)O)OC(=O)C1=CC(=C(C(=C1)OC(=O)C1=CC(=C(C(=C1)O)O)O)O)O

> <PUBCHEM_CACTVS_TPSA>
778

> <PUBCHEM_MONOISOTOPIC_WEIGHT>
1700.173

> <PUBCHEM_TOTAL_CHARGE>
0

> <PUBCHEM_HEAVY_ATOM_COUNT>
122

> <PUBCHEM_ATOM_DEF_STEREO_COUNT>
5

> <PUBCHEM_ATOM_UDEF_STEREO_COUNT>
0

> <PUBCHEM_BOND_DEF_STEREO_COUNT>
0

> <PUBCHEM_BOND_UDEF_STEREO_COUNT>
0

> <PUBCHEM_ISOTOPIC_ATOM_COUNT>
0

> <PUBCHEM_COMPONENT_COUNT>
1

> <PUBCHEM_CACTVS_TAUTO_COUNT>
-1

> <PUBCHEM_COORDINATE_TYPE>
1
5
255

> <PUBCHEM_BONDANNOTATIONS>
100  109  8
101  108  8
102  111  8
103  110  8
104  117  8
105  116  8
106  114  8
107  114  8
108  115  8
109  115  8
110  118  8
111  118  8
112  121  8
113  120  8
116  119  8
117  119  8
120  122  8
121  122  8
47  2  5
48  3  6
49  4  6
51  5  6
50  52  5
57  63  8
57  65  8
58  64  8
58  66  8
59  67  8
59  68  8
61  69  8
61  70  8
62  77  8
62  78  8
63  71  8
64  72  8
65  73  8
66  74  8
67  75  8
68  76  8
69  81  8
70  82  8
71  79  8
72  80  8
73  79  8
74  80  8
75  83  8
76  83  8
77  85  8
78  86  8
81  84  8
82  84  8
85  87  8
86  87  8
92  98  8
92  99  8
93  100  8
93  101  8
95  102  8
95  103  8
96  104  8
96  105  8
97  112  8
97  113  8
98  107  8
99  106  8

$$$$
7237
  -OEChem-02061913072D

  8  8  0     0  0  0  0  0  0999 V2000
    3.7320    0.5000    0.0000 C   0  0  0  0  0  0  0  0  0  0  0  0
    2.8660    0.0000    0.0000 C   0  0  0  0  0  0  0  0  0  0  0  0
    4.5981   -0.0000    0.0000 C   0  0  0  0  0  0  0  0  0  0  0  0
    2.8660   -1.0000    0.0000 C   0  0  0  0  0  0  0  0  0  0  0  0
    2.0000    0.5000    0.0000 C   0  0  0  0  0  0  0  0  0  0  0  0
    3.7320    1.5000    0.0000 C   0  0  0  0  0  0  0  0  0  0  0  0
    4.5981   -1.0000    0.0000 C   0  0  0  0  0  0  0  0  0  0  0  0
    3.7320   -1.5000    0.0000 C   0  0  0  0  0  0  0  0  0  0  0  0
  1  2  1  0  0  0  0
  1  3  2  0  0  0  0
  1  6  1  0  0  0  0
  2  4  2  0  0  0  0
  2  5  1  0  0  0  0
  3  7  1  0  0  0  0
  4  8  1  0  0  0  0
  7  8  2  0  0  0  0
M  END
> <PUBCHEM_COMPOUND_CID>
7237

> <PUBCHEM_COMPOUND_CANONICALIZED>
1

> <PUBCHEM_CACTVS_COMPLEXITY>
56.4

> <PUBCHEM_CACTVS_HBOND_ACCEPTOR>
0

> <PUBCHEM_CACTVS_HBOND_DONOR>
0

> <PUBCHEM_CACTVS_ROTATABLE_BOND>
0

> <PUBCHEM_CACTVS_SUBSKEYS>
AAADccBwAAAAAAAAAAAAAAAAAAAAAAAAAAAwAAAAAAAAAAABAAAAGAAAAAAADACAGAAyAIAAAACAAiBCAAACAAAgAAAIiAAAAIgIICKAERCAIAAggAAIiAcAgIAOgAAAAAAQAAAAAAAAACAAAAAAAAAAAA==

> <PUBCHEM_IUPAC_OPENEYE_NAME>
o-xylene

> <PUBCHEM_IUPAC_CAS_NAME>
1,2-xylene

> <PUBCHEM_IUPAC_NAME>
1,2-xylene

> <PUBCHEM_IUPAC_SYSTEMATIC_NAME>
1,2-dimethylbenzene

> <PUBCHEM_IUPAC_TRADITIONAL_NAME>
o-xylene

> <PUBCHEM_IUPAC_INCHI>
InChI=1S/C8H10/c1-7-5-3-4-6-8(7)2/h3-6H,1-2H3

> <PUBCHEM_IUPAC_INCHIKEY>
CTQNGGLPUBDAKN-UHFFFAOYSA-N

> <PUBCHEM_XLOGP3>
3.1

> <PUBCHEM_EXACT_MASS>
106.078

> <PUBCHEM_MOLECULAR_FORMULA>
C8H10

> <PUBCHEM_MOLECULAR_WEIGHT>
106.168

> <PUBCHEM_OPENEYE_CAN_SMILES>
CC1=CC=CC=C1C

> <PUBCHEM_OPENEYE_ISO_SMILES>
CC1=CC=CC=C1C

> <PUBCHEM_CACTVS_TPSA>
0

> <PUBCHEM_MONOISOTOPIC_WEIGHT>
106.078

> <PUBCHEM_TOTAL_CHARGE>
0

> <PUBCHEM_HEAVY_ATOM_COUNT>
8

> <PUBCHEM_ATOM_DEF_STEREO_COUNT>
0

> <PUBCHEM_ATOM_UDEF_STEREO_COUNT>
0

> <PUBCHEM_BOND_DEF_STEREO_COUNT>
0

> <PUBCHEM_BOND_UDEF_STEREO_COUNT>
0

> <PUBCHEM_ISOTOPIC_ATOM_COUNT>
0

> <PUBCHEM_COMPONENT_COUNT>
1

> <PUBCHEM_CACTVS_TAUTO_COUNT>
-1

> <PUBCHEM_COORDINATE_TYPE>
1
5
255

> <PUBCHEM_BONDANNOTATIONS>
1  2  8
1  3  8
2  4  8
3  7  8
4  8  8
7  8  8

$$$$
7015
  -OEChem-02061913072D

 13 14  0     0  0  0  0  0  0999 V2000
    2.5369   -0.5000    0.0000 N   0  0  0  0  0  0  0  0  0  0  0  0
    4.2690   -0.5000    0.0000 C   0  0  0  0  0  0  0  0  0  0  0  0
    4.2690    0.5000    0.0000 C   0  0  0  0  0  0  0  0  0  0  0  0
    3.4030   -1.0000    0.0000 C   0  0  0  0  0  0  0  0  0  0  0  0
    5.1350   -1.0000    0.0000 C   0  0  0  0  0  0  0  0  0  0  0  0
    5.1350    1.0000    0.0000 C   0  0  0  0  0  0  0  0  0  0  0  0
    3.4030    1.0000    0.0000 C   0  0  0  0  0  0  0  0  0  0  0  0
    3.4030   -2.0000    0.0000 C   0  0  0  0  0  0  0  0  0  0  0  0
    5.1350   -2.0000    0.0000 C   0  0  0  0  0  0  0  0  0  0  0  0
    4.2690   -2.5000    0.0000 C   0  0  0  0  0  0  0  0  0  0  0  0
    5.1350    2.0000    0.0000 C   0  0  0  0  0  0  0  0  0  0  0  0
    3.4030    2.0000    0.0000 C   0  0  0  0  0  0  0  0  0  0  0  0
    4.2690    2.5000    0.0000 C   0  0  0  0  0  0  0  0  0  0  0  0
  1  4  1  0  0  0  0
  2  3  1  0  0  0  0
  2  4  1  0  0  0  0
  2  5  2  0  0  0  0
  3  6  2  0  0  0  0
  3  7  1  0  0  0  0
  4  8  2  0  0  0  0
  5  9  1  0  0  0  0
  6 11  1  0  0  0  0
  7 12  2  0  0  0  0
  8 10  1  0  0  0  0
  9 10  2  0  0  0  0
 11 13  2  0  0  0  0
 12 13  1  0  0  0  0
M  END
> <PUBCHEM_COMPOUND_CID>
7015

> <PUBCHEM_COMPOUND_CANONICALIZED>
1

> <PUBCHEM_CACTVS_COMPLEXITY>
149

> <PUBCHEM_CACTVS_HBOND_ACCEPTOR>
1

> <PUBCHEM_CACTVS_HBOND_DONOR>
1

> <PUBCHEM_CACTVS_ROTATABLE_BOND>
1

> <PUBCHEM_CACTVS_SUBSKEYS>
AAADccByAAAAAAAAAAAAAAAAAAAAAAAAAAAwYAAAAAAAAAABQAAAHAAQAAAADAiBGAAwwIBAAACAAiRCQACCAAAgAgAIiAAAZIgIICKAkZGAIABgkAAIyAcQgMAOgAAAAAACAAAAAAAAAAQAAAAAAAAAAA==

> <PUBCHEM_IUPAC_OPENEYE_NAME>
2-phenylaniline

> <PUBCHEM_IUPAC_CAS_NAME>
2-phenylaniline

> <PUBCHEM_IUPAC_NAME>
2-phenylaniline

> <PUBCHEM_IUPAC_SYSTEMATIC_NAME>
2-phenylaniline

> <PUBCHEM_IUPAC_TRADITIONAL_NAME>
(2-phenylphenyl)amine

> <PUBCHEM_IUPAC_INCHI>
InChI=1S/C12H11N/c13-12-9-5-4-8-11(12)10-6-2-1-3-7-10/h1-9H,13H2

> <PUBCHEM_IUPAC_INCHIKEY>
TWBPWBPGNQWFSJ-UHFFFAOYSA-N

> <PUBCHEM_XLOGP3>
2.8

> <PUBCHEM_EXACT_MASS>
169.089

> <PUBCHEM_MOLECULAR_FORMULA>
C12H11N

> <PUBCHEM_MOLECULAR_WEIGHT>
169.227

> <PUBCHEM_OPENEYE_CAN_SMILES>
C1=CC=C(C=C1)C2=CC=CC=C2N

> <PUBCHEM_OPENEYE_ISO_SMILES>
C1=CC=C(C=C1)C2=CC=CC=C2N

> <PUBCHEM_CACTVS_TPSA>
26

> <PUBCHEM_MONOISOTOPIC_WEIGHT>
169.089

> <PUBCHEM_TOTAL_CHARGE>
0

> <PUBCHEM_HEAVY_ATOM_COUNT>
13

> <PUBCHEM_ATOM_DEF_STEREO_COUNT>
0

> <PUBCHEM_ATOM_UDEF_STEREO_COUNT>
0

> <PUBCHEM_BOND_DEF_STEREO_COUNT>
0

> <PUBCHEM_BOND_UDEF_STEREO_COUNT>
0

> <PUBCHEM_ISOTOPIC_ATOM_COUNT>
0

> <PUBCHEM_COMPONENT_COUNT>
1

> <PUBCHEM_CACTVS_TAUTO_COUNT>
-1

> <PUBCHEM_COORDINATE_TYPE>
1
5
255

> <PUBCHEM_BONDANNOTATIONS>
11  13  8
12  13  8
2  4  8
2  5  8
3  6  8
3  7  8
4  8  8
5  9  8
6  11  8
7  12  8
8  10  8
9  10  8

$$$$
8082
  -OEChem-02061913072D

  6  6  0     0  0  0  0  0  0999 V2000
    2.8660   -0.6900    0.0000 N   0  0  0  0  0  0  0  0  0  0  0  0
    2.8660    1.3100    0.0000 C   0  0  0  0  0  0  0  0  0  0  0  0
    2.0000    0.8100    0.0000 C   0  0  0  0  0  0  0  0  0  0  0  0
    3.7320    0.8100    0.0000 C   0  0  0  0  0  0  0  0  0  0  0  0
    2.0000   -0.1900    0.0000 C   0  0  0  0  0  0  0  0  0  0  0  0
    3.7320   -0.1900    0.0000 C   0  0  0  0  0  0  0  0  0  0  0  0
  1  5  1  0  0  0  0
  1  6  1  0  0  0  0
  2  3  1  0  0  0  0
  2  4  1  0  0  0  0
  3  5  1  0  0  0  0
  4  6  1  0  0  0  0
M  END
> <PUBCHEM_COMPOUND_CID>
8082

> <PUBCHEM_COMPOUND_CANONICALIZED>
1

> <PUBCHEM_CACTVS_COMPLEXITY>
30.9

> <PUBCHEM_CACTVS_HBOND_ACCEPTOR>
1

> <PUBCHEM_CACTVS_HBOND_DONOR>
1

> <PUBCHEM_CACTVS_ROTATABLE_BOND>
0

> <PUBCHEM_CACTVS_SUBSKEYS>
AAADccBiAAAAAAAAAAAAAAAAAAAAAAAAAAAsAAAAAAAAAAAAAAAAHAAQAAAACADBAAQAAALAAAAAAAAAAAAAAAAAAAAAAIAIAAAAAAIAgAAEAAAAEACAAAAQAAAAAAAAAAAAAAAAAAAAAAAAAAAAAAAAAA==

> <PUBCHEM_IUPAC_OPENEYE_NAME>
piperidine

> <PUBCHEM_IUPAC_CAS_NAME>
piperidine

> <PUBCHEM_IUPAC_NAME>
piperidine

> <PUBCHEM_IUPAC_SYSTEMATIC_NAME>
piperidine

> <PUBCHEM_IUPAC_TRADITIONAL_NAME>
piperidine

> <PUBCHEM_IUPAC_INCHI>
InChI=1S/C5H11N/c1-2-4-6-5-3-1/h6H,1-5H2

> <PUBCHEM_IUPAC_INCHIKEY>
NQRYJNQNLNOLGT-UHFFFAOYSA-N

> <PUBCHEM_XLOGP3>
0.8

> <PUBCHEM_EXACT_MASS>
85.089

> <PUBCHEM_MOLECULAR_FORMULA>
C5H11N

> <PUBCHEM_MOLECULAR_WEIGHT>
85.15

> <PUBCHEM_OPENEYE_CAN_SMILES>
C1CCNCC1

> <PUBCHEM_OPENEYE_ISO_SMILES>
C1CCNCC1

> <PUBCHEM_CACTVS_TPSA>
12

> <PUBCHEM_MONOISOTOPIC_WEIGHT>
85.089

> <PUBCHEM_TOTAL_CHARGE>
0

> <PUBCHEM_HEAVY_ATOM_COUNT>
6

> <PUBCHEM_ATOM_DEF_STEREO_COUNT>
0

> <PUBCHEM_ATOM_UDEF_STEREO_COUNT>
0

> <PUBCHEM_BOND_DEF_STEREO_COUNT>
0

> <PUBCHEM_BOND_UDEF_STEREO_COUNT>
0

> <PUBCHEM_ISOTOPIC_ATOM_COUNT>
0

> <PUBCHEM_COMPONENT_COUNT>
1

> <PUBCHEM_CACTVS_TAUTO_COUNT>
-1

> <PUBCHEM_COORDINATE_TYPE>
1
5
255

$$$$
16248
  -OEChem-02061913072D

 15 15  0     0  0  0  0  0  0999 V2000
    3.7320    2.7500    0.0000 S   0  0  0  0  0  0  0  0  0  0  0  0
    3.7320   -1.2500    0.0000 O   0  0  0  0  0  0  0  0  0  0  0  0
    2.0000   -1.2500    0.0000 O   0  0  0  0  0  0  0  0  0  0  0  0
    2.8660   -2.7500    0.0000 N   0  0  0  0  0  0  0  0  0  0  0  0
    4.5981    1.2500    0.0000 C   0  0  0  0  0  0  0  0  0  0  0  0
    2.8660    1.2500    0.0000 C   0  0  0  0  0  0  0  0  0  0  0  0
    3.7320    1.7500    0.0000 C   0  0  0  0  0  0  0  0  0  0  0  0
    4.5981    0.2500    0.0000 C   0  0  0  0  0  0  0  0  0  0  0  0
    2.8660    0.2500    0.0000 C   0  0  0  0  0  0  0  0  0  0  0  0
    3.7320   -0.2500    0.0000 C   0  0  0  0  0  0  0  0  0  0  0  0
    5.4641    1.7500    0.0000 C   0  0  0  0  0  0  0  0  0  0  0  0
    2.0000    1.7500    0.0000 C   0  0  0  0  0  0  0  0  0  0  0  0
    4.5981    3.2500    0.0000 C   0  0  0  0  0  0  0  0  0  0  0  0
    2.8660   -1.7500    0.0000 C   0  0  0  0  0  0  0  0  0  0  0  0
    2.0000   -3.2500    0.0000 C   0  0  0  0  0  0  0  0  0  0  0  0
  1  7  1  0  0  0  0
  1 13  1  0  0  0  0
  2 10  1  0  0  0  0
  2 14  1  0  0  0  0
  3 14  2  0  0  0  0
  4 14  1  0  0  0  0
  4 15  1  0  0  0  0
  5  7  2  0  0  0  0
  5  8  1  0  0  0  0
  5 11  1  0  0  0  0
  6  7  1  0  0  0  0
  6  9  2  0  0  0  0
  6 12  1  0  0  0  0
  8 10  2  0  0  0  0
  9 10  1  0  0  0  0
M  END
> <PUBCHEM_COMPOUND_CID>
16248

> <PUBCHEM_COMPOUND_CANONICALIZED>
1

> <PUBCHEM_CACTVS_COMPLEXITY>
211

> <PUBCHEM_CACTVS_HBOND_ACCEPTOR>
3

> <PUBCHEM_CACTVS_HBOND_DONOR>
1

> <PUBCHEM_CACTVS_ROTATABLE_BOND>
3

> <PUBCHEM_CACTVS_SUBSKEYS>
AAADccByMABAAAAAAAAAAAAAAAAAAAAAAAAwAAAAAAAAAAABAAAAHgQQAAAADASA2ASyD4LABAiIAiBCGAACCAAgKBAAiJAOCIkMJiKkMRqIMiAkwhEIqAeAwFAOAIADAAAEAAABAAYAAAgAAAAAAAAAAA==

> <PUBCHEM_IUPAC_OPENEYE_NAME>
(3,5-dimethyl-4-methylsulfanyl-phenyl) ~{N}-methylcarbamate

> <PUBCHEM_IUPAC_CAS_NAME>
~{N}-methylcarbamic acid [3,5-dimethyl-4-(methylthio)phenyl] ester

> <PUBCHEM_IUPAC_NAME>
(3,5-dimethyl-4-methylsulfanylphenyl) ~{N}-methylcarbamate

> <PUBCHEM_IUPAC_SYSTEMATIC_NAME>
(3,5-dimethyl-4-methylsulfanyl-phenyl) ~{N}-methylcarbamate

> <PUBCHEM_IUPAC_TRADITIONAL_NAME>
~{N}-methylcarbamic acid [3,5-dimethyl-4-(methylthio)phenyl] ester

> <PUBCHEM_IUPAC_INCHI>
InChI=1S/C11H15NO2S/c1-7-5-9(14-11(13)12-3)6-8(2)10(7)15-4/h5-6H,1-4H3,(H,12,13)

> <PUBCHEM_IUPAC_INCHIKEY>
YFBPRJGDJKVWAH-UHFFFAOYSA-N

> <PUBCHEM_XLOGP3>
2.9

> <PUBCHEM_EXACT_MASS>
225.082

> <PUBCHEM_MOLECULAR_FORMULA>
C11H15NO2S

> <PUBCHEM_MOLECULAR_WEIGHT>
225.306

> <PUBCHEM_OPENEYE_CAN_SMILES>
CC1=CC(=CC(=C1SC)C)OC(=O)NC

> <PUBCHEM_OPENEYE_ISO_SMILES>
CC1=CC(=CC(=C1SC)C)OC(=O)NC

> <PUBCHEM_CACTVS_TPSA>
63.6

> <PUBCHEM_MONOISOTOPIC_WEIGHT>
225.082

> <PUBCHEM_TOTAL_CHARGE>
0

> <PUBCHEM_HEAVY_ATOM_COUNT>
15

> <PUBCHEM_ATOM_DEF_STEREO_COUNT>
0

> <PUBCHEM_ATOM_UDEF_STEREO_COUNT>
0

> <PUBCHEM_BOND_DEF_STEREO_COUNT>
0

> <PUBCHEM_BOND_UDEF_STEREO_COUNT>
0

> <PUBCHEM_ISOTOPIC_ATOM_COUNT>
0

> <PUBCHEM_COMPONENT_COUNT>
1

> <PUBCHEM_CACTVS_TAUTO_COUNT>
-1

> <PUBCHEM_COORDINATE_TYPE>
1
5
255

> <PUBCHEM_BONDANNOTATIONS>
5  7  8
5  8  8
6  7  8
6  9  8
8  10  8
9  10  8

$$$$
11761472
  -OEChem-02061913512D

 28 31  0     1  0  0  0  0  0999 V2000
    7.0628    1.2008    0.0000 O   0  0  0  0  0  0  0  0  0  0  0  0
    2.5357   -3.3515    0.0000 O   0  0  0  0  0  0  0  0  0  0  0  0
   11.7640    3.2695    0.0000 O   0  0  0  0  0  0  0  0  0  0  0  0
   12.1212    1.5747    0.0000 O   0  0  0  0  0  0  0  0  0  0  0  0
    7.9288   -0.2992    0.0000 C   0  0  1  0  0  0  0  0  0  0  0  0
    7.9288   -1.2992    0.0000 C   0  0  2  0  0  0  0  0  0  0  0  0
    7.0628   -1.7992    0.0000 C   0  0  1  0  0  0  0  0  0  0  0  0
    6.1968   -1.2992    0.0000 C   0  0  1  0  0  0  0  0  0  0  0  0
    5.2868   -1.8060    0.0000 C   0  0  2  0  0  0  0  0  0  0  0  0
    8.8750    0.0055    0.0000 C   0  0  2  0  0  0  0  0  0  0  0  0
    7.0628    0.2008    0.0000 C   0  0  2  0  0  0  0  0  0  0  0  0
    6.1968   -0.2992    0.0000 C   0  0  0  0  0  0  0  0  0  0  0  0
    5.2787   -2.8476    0.0000 C   0  0  3  0  0  0  0  0  0  0  0  0
    8.8750   -1.6039    0.0000 C   0  0  0  0  0  0  0  0  0  0  0  0
    7.0789   -2.8407    0.0000 C   0  0  0  0  0  0  0  0  0  0  0  0
    9.4586   -0.7992    0.0000 C   0  0  0  0  0  0  0  0  0  0  0  0
    6.1808   -3.3685    0.0000 C   0  0  0  0  0  0  0  0  0  0  0  0
    4.3599   -1.2420    0.0000 C   0  0  0  0  0  0  0  0  0  0  0  0
    7.9288    0.7008    0.0000 C   0  0  0  0  0  0  0  0  0  0  0  0
    9.1857    0.9560    0.0000 C   0  0  1  0  0  0  0  0  0  0  0  0
    4.3433   -3.3974    0.0000 C   0  0  0  0  0  0  0  0  0  0  0  0
    5.2945   -0.8061    0.0000 C   0  0  0  0  0  0  0  0  0  0  0  0
    3.4120   -1.7699    0.0000 C   0  0  0  0  0  0  0  0  0  0  0  0
    3.4037   -2.8549    0.0000 C   0  0  1  0  0  0  0  0  0  0  0  0
   10.1642    1.1623    0.0000 C   0  0  0  0  0  0  0  0  0  0  0  0
    8.5179    1.7004    0.0000 C   0  0  0  0  0  0  0  0  0  0  0  0
   10.4749    2.1128    0.0000 C   0  0  0  0  0  0  0  0  0  0  0  0
   11.4534    2.3190    0.0000 C   0  0  0  0  0  0  0  0  0  0  0  0
 11  1  1  6  0  0  0
 24  2  1  6  0  0  0
  3 28  1  0  0  0  0
  4 28  2  0  0  0  0
  5  6  1  0  0  0  0
  5 10  1  0  0  0  0
  5 11  1  0  0  0  0
  5 19  1  1  0  0  0
  6  7  1  0  0  0  0
  6 14  1  0  0  0  0
  7  8  1  0  0  0  0
  7 15  1  0  0  0  0
  8  9  1  0  0  0  0
  8 12  1  0  0  0  0
  9 13  1  0  0  0  0
  9 18  1  0  0  0  0
  9 22  1  1  0  0  0
 10 16  1  0  0  0  0
 10 20  1  0  0  0  0
 11 12  1  0  0  0  0
 13 17  1  0  0  0  0
 13 21  1  0  0  0  0
 14 16  1  0  0  0  0
 15 17  1  0  0  0  0
 18 23  1  0  0  0  0
 20 25  1  0  0  0  0
 20 26  1  6  0  0  0
 21 24  1  0  0  0  0
 23 24  1  0  0  0  0
 25 27  1  0  0  0  0
 27 28  1  0  0  0  0
M  END
> <PUBCHEM_COMPOUND_CID>
11761472

> <PUBCHEM_COMPOUND_CANONICALIZED>
1

> <PUBCHEM_CACTVS_COMPLEXITY>
605

> <PUBCHEM_CACTVS_HBOND_ACCEPTOR>
4

> <PUBCHEM_CACTVS_HBOND_DONOR>
3

> <PUBCHEM_CACTVS_ROTATABLE_BOND>
4

> <PUBCHEM_CACTVS_SUBSKEYS>
AAADcfB4OAAAAAAAAAAAAAAAAAAAAYAAAAAwYMAAAAAAAGDAAAAAGgAACAAADxSggAICCAAAAgAIAACQCAAAAAAAAAAAAAEAAAAAEBIAAAAAQAAEAAAAAAGIyPCPgAAAAAAAAADAAAYAADAAAQAACAAAAA==

> <PUBCHEM_IUPAC_OPENEYE_NAME>
(4~{R})-4-[(3~{R},8~{R},9~{S},10~{S},12~{S},13~{R},14~{S},17~{R})-3,12-dihydroxy-10,13-dimethyl-2,3,4,5,6,7,8,9,11,12,14,15,16,17-tetradecahydro-1~{H}-cyclopenta[a]phenanthren-17-yl]pentanoic acid

> <PUBCHEM_IUPAC_CAS_NAME>
(4~{R})-4-[(3~{R},8~{R},9~{S},10~{S},12~{S},13~{R},14~{S},17~{R})-3,12-dihydroxy-10,13-dimethyl-2,3,4,5,6,7,8,9,11,12,14,15,16,17-tetradecahydro-1~{H}-cyclopenta[a]phenanthren-17-yl]pentanoic acid

> <PUBCHEM_IUPAC_NAME>
(4~{R})-4-[(3~{R},8~{R},9~{S},10~{S},12~{S},13~{R},14~{S},17~{R})-3,12-dihydroxy-10,13-dimethyl-2,3,4,5,6,7,8,9,11,12,14,15,16,17-tetradecahydro-1~{H}-cyclopenta[a]phenanthren-17-yl]pentanoic acid

> <PUBCHEM_IUPAC_SYSTEMATIC_NAME>
(4~{R})-4-[(3~{R},8~{R},9~{S},10~{S},12~{S},13~{R},14~{S},17~{R})-10,13-dimethyl-3,12-bis(oxidanyl)-2,3,4,5,6,7,8,9,11,12,14,15,16,17-tetradecahydro-1~{H}-cyclopenta[a]phenanthren-17-yl]pentanoic acid

> <PUBCHEM_IUPAC_TRADITIONAL_NAME>
(4~{R})-4-[(3~{R},8~{R},9~{S},10~{S},12~{S},13~{R},14~{S},17~{R})-3,12-dihydroxy-10,13-dimethyl-2,3,4,5,6,7,8,9,11,12,14,15,16,17-tetradecahydro-1~{H}-cyclopenta[a]phenanthren-17-yl]valeric acid

> <PUBCHEM_IUPAC_INCHI>
InChI=1S/C24H40O4/c1-14(4-9-22(27)28)18-7-8-19-17-6-5-15-12-16(25)10-11-23(15,2)20(17)13-21(26)24(18,19)3/h14-21,25-26H,4-13H2,1-3H3,(H,27,28)/t14-,15?,16-,17+,18-,19+,20+,21+,23+,24-/m1/s1

> <PUBCHEM_IUPAC_INCHIKEY>
KXGVEGMKQFWNSR-GLVYUSSZSA-N

> <PUBCHEM_XLOGP3_AA>
4.9

> <PUBCHEM_EXACT_MASS>
392.293

> <PUBCHEM_MOLECULAR_FORMULA>
C24H40O4

> <PUBCHEM_MOLECULAR_WEIGHT>
392.58

> <PUBCHEM_OPENEYE_CAN_SMILES>
CC(CCC(=O)O)C1CCC2C1(C(CC3C2CCC4C3(CCC(C4)O)C)O)C

> <PUBCHEM_OPENEYE_ISO_SMILES>
C[C@H](CCC(=O)O)[C@H]1CC[C@@H]2[C@@]1([C@H](C[C@H]3[C@H]2CCC4[C@@]3(CC[C@H](C4)O)C)O)C

> <PUBCHEM_CACTVS_TPSA>
77.8

> <PUBCHEM_MONOISOTOPIC_WEIGHT>
392.293

> <PUBCHEM_TOTAL_CHARGE>
0

> <PUBCHEM_HEAVY_ATOM_COUNT>
28

> <PUBCHEM_ATOM_DEF_STEREO_COUNT>
9

> <PUBCHEM_ATOM_UDEF_STEREO_COUNT>
1

> <PUBCHEM_BOND_DEF_STEREO_COUNT>
0

> <PUBCHEM_BOND_UDEF_STEREO_COUNT>
0

> <PUBCHEM_ISOTOPIC_ATOM_COUNT>
0

> <PUBCHEM_COMPONENT_COUNT>
1

> <PUBCHEM_CACTVS_TAUTO_COUNT>
-1

> <PUBCHEM_COORDINATE_TYPE>
1
5
255

> <PUBCHEM_BONDANNOTATIONS>
11  1  6
10  32  6
13  21  3
24  2  6
20  26  6
5  19  5
6  29  6
7  30  5
8  31  6
9  22  5

$$$$
7362
  -OEChem-02061913072D

  7  7  0     0  0  0  0  0  0999 V2000
    2.8090   -0.4197    0.0000 O   0  0  0  0  0  0  0  0  0  0  0  0
    4.7770   -1.1191    0.0000 O   0  0  0  0  0  0  0  0  0  0  0  0
    3.6180    0.1681    0.0000 C   0  0  0  0  0  0  0  0  0  0  0  0
    3.3090    1.1191    0.0000 C   0  0  0  0  0  0  0  0  0  0  0  0
    2.3090    1.1191    0.0000 C   0  0  0  0  0  0  0  0  0  0  0  0
    2.0000    0.1681    0.0000 C   0  0  0  0  0  0  0  0  0  0  0  0
    4.5691   -0.1410    0.0000 C   0  0  0  0  0  0  0  0  0  0  0  0
  1  3  1  0  0  0  0
  1  6  1  0  0  0  0
  2  7  2  0  0  0  0
  3  4  2  0  0  0  0
  3  7  1  0  0  0  0
  4  5  1  0  0  0  0
  5  6  2  0  0  0  0
M  END
> <PUBCHEM_COMPOUND_CID>
7362

> <PUBCHEM_COMPOUND_CANONICALIZED>
1

> <PUBCHEM_CACTVS_COMPLEXITY>
70.5

> <PUBCHEM_CACTVS_HBOND_ACCEPTOR>
2

> <PUBCHEM_CACTVS_HBOND_DONOR>
0

> <PUBCHEM_CACTVS_ROTATABLE_BOND>
1

> <PUBCHEM_CACTVS_SUBSKEYS>
AAADcYBgMAAAAAAAAAAAAAAAAAAAASAAAAAAAAAAAAAAAAABgAAAGgAAAAAACASgkAIwBIAABECIAKhSgAICCAAkIAAIiAFGCMgMJjKENR6CGSCkwBEIqYaIBgAAAAAAAAAAAAAAAAAAAAAAAAAAAAAAAA==

> <PUBCHEM_IUPAC_OPENEYE_NAME>
furan-2-carbaldehyde

> <PUBCHEM_IUPAC_CAS_NAME>
2-furancarboxaldehyde

> <PUBCHEM_IUPAC_NAME>
furan-2-carbaldehyde

> <PUBCHEM_IUPAC_SYSTEMATIC_NAME>
furan-2-carbaldehyde

> <PUBCHEM_IUPAC_TRADITIONAL_NAME>
furfural

> <PUBCHEM_IUPAC_INCHI>
InChI=1S/C5H4O2/c6-4-5-2-1-3-7-5/h1-4H

> <PUBCHEM_IUPAC_INCHIKEY>
HYBBIBNJHNGZAN-UHFFFAOYSA-N

> <PUBCHEM_XLOGP3>
0.4

> <PUBCHEM_EXACT_MASS>
96.021

> <PUBCHEM_MOLECULAR_FORMULA>
C5H4O2

> <PUBCHEM_MOLECULAR_WEIGHT>
96.085

> <PUBCHEM_OPENEYE_CAN_SMILES>
C1=COC(=C1)C=O

> <PUBCHEM_OPENEYE_ISO_SMILES>
C1=COC(=C1)C=O

> <PUBCHEM_CACTVS_TPSA>
30.2

> <PUBCHEM_MONOISOTOPIC_WEIGHT>
96.021

> <PUBCHEM_TOTAL_CHARGE>
0

> <PUBCHEM_HEAVY_ATOM_COUNT>
7

> <PUBCHEM_ATOM_DEF_STEREO_COUNT>
0

> <PUBCHEM_ATOM_UDEF_STEREO_COUNT>
0

> <PUBCHEM_BOND_DEF_STEREO_COUNT>
0

> <PUBCHEM_BOND_UDEF_STEREO_COUNT>
0

> <PUBCHEM_ISOTOPIC_ATOM_COUNT>
0

> <PUBCHEM_COMPONENT_COUNT>
1

> <PUBCHEM_CACTVS_TAUTO_COUNT>
-1

> <PUBCHEM_COORDINATE_TYPE>
1
5
255

> <PUBCHEM_BONDANNOTATIONS>
1  3  8
1  6  8
3  4  8
4  5  8
5  6  8

$$$$
8749
  -OEChem-02061913072D

 11 11  0     0  0  0  0  0  0999 V2000
    2.0000   -2.5000    0.0000 O   0  0  0  0  0  0  0  0  0  0  0  0
    2.8660    2.0000    0.0000 N   0  0  0  0  0  0  0  0  0  0  0  0
    2.8660   -2.0000    0.0000 N   0  0  0  0  0  0  0  0  0  0  0  0
    2.8660    1.0000    0.0000 C   0  0  0  0  0  0  0  0  0  0  0  0
    2.0000    0.5000    0.0000 C   0  0  0  0  0  0  0  0  0  0  0  0
    3.7320    0.5000    0.0000 C   0  0  0  0  0  0  0  0  0  0  0  0
    3.7320    2.5000    0.0000 C   0  0  0  0  0  0  0  0  0  0  0  0
    2.0000    2.5000    0.0000 C   0  0  0  0  0  0  0  0  0  0  0  0
    2.0000   -0.5000    0.0000 C   0  0  0  0  0  0  0  0  0  0  0  0
    3.7320   -0.5000    0.0000 C   0  0  0  0  0  0  0  0  0  0  0  0
    2.8660   -1.0000    0.0000 C   0  0  0  0  0  0  0  0  0  0  0  0
  1  3  2  0  0  0  0
  2  4  1  0  0  0  0
  2  7  1  0  0  0  0
  2  8  1  0  0  0  0
  3 11  1  0  0  0  0
  4  5  2  0  0  0  0
  4  6  1  0  0  0  0
  5  9  1  0  0  0  0
  6 10  2  0  0  0  0
  9 11  2  0  0  0  0
 10 11  1  0  0  0  0
M  END
> <PUBCHEM_COMPOUND_CID>
8749

> <PUBCHEM_COMPOUND_CANONICALIZED>
1

> <PUBCHEM_CACTVS_COMPLEXITY>
128

> <PUBCHEM_CACTVS_HBOND_ACCEPTOR>
3

> <PUBCHEM_CACTVS_HBOND_DONOR>
0

> <PUBCHEM_CACTVS_ROTATABLE_BOND>
1

> <PUBCHEM_CACTVS_SUBSKEYS>
AAADccBzIAAAAAAAAAAAAAAAAAAAAAAAAAAwAAAAAAAAAAABAAAAHAAEAAAACAiBEAQywIMQAACBACRCQgCCAAAhAgAIiAAIZIoIICLAkZGEIAhggABIyAcQAAAAAACAAAAAAAAAAQAAAAAAAAAAAAAAAA==

> <PUBCHEM_IUPAC_OPENEYE_NAME>
~{N},~{N}-dimethyl-4-nitroso-aniline

> <PUBCHEM_IUPAC_CAS_NAME>
~{N},~{N}-dimethyl-4-nitrosoaniline

> <PUBCHEM_IUPAC_NAME>
~{N},~{N}-dimethyl-4-nitrosoaniline

> <PUBCHEM_IUPAC_SYSTEMATIC_NAME>
~{N},~{N}-dimethyl-4-nitroso-aniline

> <PUBCHEM_IUPAC_TRADITIONAL_NAME>
dimethyl-(4-nitrosophenyl)amine

> <PUBCHEM_IUPAC_INCHI>
InChI=1S/C8H10N2O/c1-10(2)8-5-3-7(9-11)4-6-8/h3-6H,1-2H3

> <PUBCHEM_IUPAC_INCHIKEY>
CMEWLCATCRTSGF-UHFFFAOYSA-N

> <PUBCHEM_XLOGP3>
1.8

> <PUBCHEM_EXACT_MASS>
150.079

> <PUBCHEM_MOLECULAR_FORMULA>
C8H10N2O

> <PUBCHEM_MOLECULAR_WEIGHT>
150.181

> <PUBCHEM_OPENEYE_CAN_SMILES>
CN(C)C1=CC=C(C=C1)N=O

> <PUBCHEM_OPENEYE_ISO_SMILES>
CN(C)C1=CC=C(C=C1)N=O

> <PUBCHEM_CACTVS_TPSA>
32.7

> <PUBCHEM_MONOISOTOPIC_WEIGHT>
150.079

> <PUBCHEM_TOTAL_CHARGE>
0

> <PUBCHEM_HEAVY_ATOM_COUNT>
11

> <PUBCHEM_ATOM_DEF_STEREO_COUNT>
0

> <PUBCHEM_ATOM_UDEF_STEREO_COUNT>
0

> <PUBCHEM_BOND_DEF_STEREO_COUNT>
0

> <PUBCHEM_BOND_UDEF_STEREO_COUNT>
0

> <PUBCHEM_ISOTOPIC_ATOM_COUNT>
0

> <PUBCHEM_COMPONENT_COUNT>
1

> <PUBCHEM_CACTVS_TAUTO_COUNT>
-1

> <PUBCHEM_COORDINATE_TYPE>
1
5
255

> <PUBCHEM_BONDANNOTATIONS>
10  11  8
4  5  8
4  6  8
5  9  8
6  10  8
9  11  8

$$$$
66577029
  -OEChem-02061914332D

 29 31  0     1  0  0  0  0  0999 V2000
    2.0000   -4.8465    0.0000 O   0  0  0  0  0  0  0  0  0  0  0  0
    5.4641    1.1535    0.0000 C   0  0  2  0  0  0  0  0  0  0  0  0
    6.4103    1.4582    0.0000 C   0  0  2  0  0  0  0  0  0  0  0  0
    5.4641    0.1535    0.0000 C   0  0  1  0  0  0  0  0  0  0  0  0
    6.9939    0.6535    0.0000 C   0  0  0  0  0  0  0  0  0  0  0  0
    6.4103   -0.1512    0.0000 C   0  0  0  0  0  0  0  0  0  0  0  0
    4.5981    1.6535    0.0000 C   0  0  0  0  0  0  0  0  0  0  0  0
    6.7210    2.4087    0.0000 C   0  0  2  0  0  0  0  0  0  0  0  0
    4.5981   -0.3465    0.0000 C   0  0  0  0  0  0  0  0  0  0  0  0
    5.4641    2.1535    0.0000 C   0  0  0  0  0  0  0  0  0  0  0  0
    3.7320    1.1535    0.0000 C   0  0  0  0  0  0  0  0  0  0  0  0
    3.7320    0.1535    0.0000 C   0  0  0  0  0  0  0  0  0  0  0  0
    6.0531    3.1530    0.0000 C   0  0  0  0  0  0  0  0  0  0  0  0
    7.6995    2.6150    0.0000 C   0  0  0  0  0  0  0  0  0  0  0  0
    4.5981   -1.3465    0.0000 C   0  0  0  0  0  0  0  0  0  0  0  0
    8.0102    3.5655    0.0000 C   0  0  0  0  0  0  0  0  0  0  0  0
    3.7320   -1.8465    0.0000 C   0  0  0  0  0  0  0  0  0  0  0  0
    8.9887    3.7717    0.0000 C   0  0  1  0  0  0  0  0  0  0  0  0
    3.7320   -2.8465    0.0000 C   0  0  0  0  0  0  0  0  0  0  0  0
    9.2993    4.7222    0.0000 C   0  0  0  0  0  0  0  0  0  0  0  0
    2.8660   -3.3465    0.0000 C   0  0  0  0  0  0  0  0  0  0  0  0
    9.6565    3.0274    0.0000 C   0  0  0  0  0  0  0  0  0  0  0  0
    4.5981   -3.3465    0.0000 C   0  0  0  0  0  0  0  0  0  0  0  0
    2.8660   -4.3465    0.0000 C   0  0  2  0  0  0  0  0  0  0  0  0
    4.5981   -4.3465    0.0000 C   0  0  0  0  0  0  0  0  0  0  0  0
    3.7320   -4.8465    0.0000 C   0  0  0  0  0  0  0  0  0  0  0  0
   10.2778    4.9284    0.0000 C   0  0  0  0  0  0  0  0  0  0  0  0
    8.6315    5.4665    0.0000 C   0  0  0  0  0  0  0  0  0  0  0  0
    5.4641   -2.8465    0.0000 C   0  0  0  0  0  0  0  0  0  0  0  0
 24  1  1  6  0  0  0
  2  3  1  0  0  0  0
  2  4  1  0  0  0  0
  2  7  1  0  0  0  0
  2 10  1  1  0  0  0
  3  5  1  0  0  0  0
  3  8  1  0  0  0  0
  4  6  1  0  0  0  0
  4  9  1  0  0  0  0
  5  6  1  0  0  0  0
  7 11  1  0  0  0  0
  8 13  1  6  0  0  0
  8 14  1  0  0  0  0
  9 12  1  0  0  0  0
  9 15  2  0  0  0  0
 11 12  1  0  0  0  0
 14 16  2  0  0  0  0
 15 17  1  0  0  0  0
 16 18  1  0  0  0  0
 17 19  2  0  0  0  0
 18 20  1  0  0  0  0
 18 22  1  1  0  0  0
 19 21  1  0  0  0  0
 19 23  1  0  0  0  0
 20 27  1  0  0  0  0
 20 28  1  0  0  0  0
 21 24  1  0  0  0  0
 23 25  1  0  0  0  0
 23 29  2  0  0  0  0
 24 26  1  0  0  0  0
 25 26  1  0  0  0  0
M  ISO  3  52   2  71   2  72   2
M  END
> <PUBCHEM_COMPOUND_CID>
66577029

> <PUBCHEM_COMPOUND_CANONICALIZED>
1

> <PUBCHEM_CACTVS_COMPLEXITY>
678

> <PUBCHEM_CACTVS_HBOND_ACCEPTOR>
1

> <PUBCHEM_CACTVS_HBOND_DONOR>
1

> <PUBCHEM_CACTVS_ROTATABLE_BOND>
5

> <PUBCHEM_CACTVS_SUBSKEYS>
AAADcfB4IAAAAAAAAAAAAAAAAAAAAYAAAAAwYAAAAAAAAGAAAAAAGgAACAAADxSggAICAAAAAgCAAiBCAAAAAAAgAAAICAAAAAgIEAIAAQAAQAAEwAAIgAOAwMAPgAAAAAAAAAAAAAAAACAAAQAACAAAAA==

> <PUBCHEM_IUPAC_OPENEYE_NAME>
(1~{S},3~{Z})-3-[(2~{E})-2-[(1~{R},3~{a}~{S},7~{a}~{R})-7~{a}-methyl-1-[(~{E},1~{R},4~{R})-1,4,5-trimethylhex-2-enyl]-2,3,3~{a},5,6,7-hexahydro-1~{H}-inden-4-ylidene]-1-deuterio-ethylidene]-4-(dideuteriomethylene)cyclohexanol

> <PUBCHEM_IUPAC_CAS_NAME>
(1~{S},3~{Z})-3-[(2~{E})-2-[(1~{R},3~{a}~{S},7~{a}~{R})-1-[(~{E},2~{R},5~{R})-5,6-dimethylhept-3-en-2-yl]-7~{a}-methyl-2,3,3~{a},5,6,7-hexahydro-1~{H}-inden-4-ylidene]-1-deuterioethylidene]-4-(dideuteriomethylidene)-1-cyclohexanol

> <PUBCHEM_IUPAC_NAME>
(1~{S},3~{Z})-3-[(2~{E})-2-[(1~{R},3~{a}~{S},7~{a}~{R})-1-[(~{E},2~{R},5~{R})-5,6-dimethylhept-3-en-2-yl]-7~{a}-methyl-2,3,3~{a},5,6,7-hexahydro-1~{H}-inden-4-ylidene]-1-deuterioethylidene]-4-(dideuteriomethylidene)cyclohexan-1-ol

> <PUBCHEM_IUPAC_SYSTEMATIC_NAME>
(1~{S},3~{Z})-3-[(2~{E})-2-[(1~{R},3~{a}~{S},7~{a}~{R})-1-[(~{E},2~{R},5~{R})-5,6-dimethylhept-3-en-2-yl]-7~{a}-methyl-2,3,3~{a},5,6,7-hexahydro-1~{H}-inden-4-ylidene]-1-deuterio-ethylidene]-4-(dideuteriomethylidene)cyclohexan-1-ol

> <PUBCHEM_IUPAC_TRADITIONAL_NAME>
(1~{S},3~{Z})-3-[(2~{E})-2-[(1~{R},3~{a}~{S},7~{a}~{R})-7~{a}-methyl-1-[(~{E},1~{R},4~{R})-1,4,5-trimethylhex-2-enyl]-2,3,3~{a},5,6,7-hexahydro-1~{H}-inden-4-ylidene]-1-deuterio-ethylidene]-4-(dideuteriomethylene)cyclohexanol

> <PUBCHEM_IUPAC_INCHI>
InChI=1S/C28H44O/c1-19(2)20(3)9-10-22(5)26-15-16-27-23(8-7-17-28(26,27)6)12-13-24-18-25(29)14-11-21(24)4/h9-10,12-13,19-20,22,25-27,29H,4,7-8,11,14-18H2,1-3,5-6H3/b10-9+,23-12+,24-13-/t20-,22+,25-,26+,27-,28+/m0/s1/i4D2,13D

> <PUBCHEM_IUPAC_INCHIKEY>
MECHNRXZTMCUDQ-OQGZBSKRSA-N

> <PUBCHEM_XLOGP3_AA>
7.4

> <PUBCHEM_EXACT_MASS>
399.358

> <PUBCHEM_MOLECULAR_FORMULA>
C28H44O

> <PUBCHEM_MOLECULAR_WEIGHT>
399.677

> <PUBCHEM_OPENEYE_CAN_SMILES>
CC(C)C(C)C=CC(C)C1CCC2C1(CCCC2=CC=C3CC(CCC3=C)O)C

> <PUBCHEM_OPENEYE_ISO_SMILES>
[2H]C(=C\1CC[C@@H](C/C1=C(\[2H])/C=C/2\CCC[C@]3([C@H]2CC[C@@H]3[C@H](C)/C=C/[C@H](C)C(C)C)C)O)[2H]

> <PUBCHEM_CACTVS_TPSA>
20.2

> <PUBCHEM_MONOISOTOPIC_WEIGHT>
399.358

> <PUBCHEM_TOTAL_CHARGE>
0

> <PUBCHEM_HEAVY_ATOM_COUNT>
29

> <PUBCHEM_ATOM_DEF_STEREO_COUNT>
6

> <PUBCHEM_ATOM_UDEF_STEREO_COUNT>
0

> <PUBCHEM_BOND_DEF_STEREO_COUNT>
3

> <PUBCHEM_BOND_UDEF_STEREO_COUNT>
0

> <PUBCHEM_ISOTOPIC_ATOM_COUNT>
3

> <PUBCHEM_COMPONENT_COUNT>
1

> <PUBCHEM_CACTVS_TAUTO_COUNT>
-1

> <PUBCHEM_COORDINATE_TYPE>
1
5
255

> <PUBCHEM_BONDANNOTATIONS>
24  1  6
18  22  5
2  10  5
3  30  6
4  31  6
8  13  6

$$$$
7937
  -OEChem-02061913072D

  8  8  0     0  0  0  0  0  0999 V2000
    3.7320   -1.0000    0.0000 N   0  0  0  0  0  0  0  0  0  0  0  0
    2.8660   -0.5000    0.0000 C   0  0  0  0  0  0  0  0  0  0  0  0
    4.5981   -0.5000    0.0000 C   0  0  0  0  0  0  0  0  0  0  0  0
    2.8660    0.5000    0.0000 C   0  0  0  0  0  0  0  0  0  0  0  0
    4.5981    0.5000    0.0000 C   0  0  0  0  0  0  0  0  0  0  0  0
    3.7320    1.0000    0.0000 C   0  0  0  0  0  0  0  0  0  0  0  0
    2.0000   -1.0000    0.0000 C   0  0  0  0  0  0  0  0  0  0  0  0
    5.4641   -1.0000    0.0000 C   0  0  0  0  0  0  0  0  0  0  0  0
  1  2  2  0  0  0  0
  1  3  1  0  0  0  0
  2  4  1  0  0  0  0
  2  7  1  0  0  0  0
  3  5  2  0  0  0  0
  3  8  1  0  0  0  0
  4  6  2  0  0  0  0
  5  6  1  0  0  0  0
M  END
> <PUBCHEM_COMPOUND_CID>
7937

> <PUBCHEM_COMPOUND_CANONICALIZED>
1

> <PUBCHEM_CACTVS_COMPLEXITY>
62.8

> <PUBCHEM_CACTVS_HBOND_ACCEPTOR>
1

> <PUBCHEM_CACTVS_HBOND_DONOR>
0

> <PUBCHEM_CACTVS_ROTATABLE_BOND>
0

> <PUBCHEM_CACTVS_SUBSKEYS>
AAADccBiAAAAAAAAAAAAAAAAAAAAAAAAAAAsAAAAAAAAAAABgAAAHAAAAAAACAiBFgAygJIIEACgASRiRACCgCAhAiAImCAwZJgIIOLAkZGEIAhggADIyAcQgAAAAAAAAAAAAAAAAAAAAAAAAAAAAAAAAA==

> <PUBCHEM_IUPAC_OPENEYE_NAME>
2,6-dimethylpyridine

> <PUBCHEM_IUPAC_CAS_NAME>
2,6-dimethylpyridine

> <PUBCHEM_IUPAC_NAME>
2,6-dimethylpyridine

> <PUBCHEM_IUPAC_SYSTEMATIC_NAME>
2,6-dimethylpyridine

> <PUBCHEM_IUPAC_TRADITIONAL_NAME>
2,6-lutidine

> <PUBCHEM_IUPAC_INCHI>
InChI=1S/C7H9N/c1-6-4-3-5-7(2)8-6/h3-5H,1-2H3

> <PUBCHEM_IUPAC_INCHIKEY>
OISVCGZHLKNMSJ-UHFFFAOYSA-N

> <PUBCHEM_XLOGP3>
1.7

> <PUBCHEM_EXACT_MASS>
107.073

> <PUBCHEM_MOLECULAR_FORMULA>
C7H9N

> <PUBCHEM_MOLECULAR_WEIGHT>
107.156

> <PUBCHEM_OPENEYE_CAN_SMILES>
CC1=NC(=CC=C1)C

> <PUBCHEM_OPENEYE_ISO_SMILES>
CC1=NC(=CC=C1)C

> <PUBCHEM_CACTVS_TPSA>
12.9

> <PUBCHEM_MONOISOTOPIC_WEIGHT>
107.073

> <PUBCHEM_TOTAL_CHARGE>
0

> <PUBCHEM_HEAVY_ATOM_COUNT>
8

> <PUBCHEM_ATOM_DEF_STEREO_COUNT>
0

> <PUBCHEM_ATOM_UDEF_STEREO_COUNT>
0

> <PUBCHEM_BOND_DEF_STEREO_COUNT>
0

> <PUBCHEM_BOND_UDEF_STEREO_COUNT>
0

> <PUBCHEM_ISOTOPIC_ATOM_COUNT>
0

> <PUBCHEM_COMPONENT_COUNT>
1

> <PUBCHEM_CACTVS_TAUTO_COUNT>
-1

> <PUBCHEM_COORDINATE_TYPE>
1
5
255

> <PUBCHEM_BONDANNOTATIONS>
1  2  8
1  3  8
2  4  8
3  5  8
4  6  8
5  6  8

$$$$
94175
  -OEChem-02061913062D

 24 27  0     1  0  0  0  0  0999 V2000
    5.5320    0.2350    0.0000 O   0  0  0  0  0  0  0  0  0  0  0  0
    2.8680   -1.2408    0.0000 O   0  0  0  0  0  0  0  0  0  0  0  0
    7.9557    1.4507    0.0000 N   0  0  3  0  0  0  0  0  0  0  0  0
    6.3981   -3.2650    0.0000 N   0  0  0  0  0  0  0  0  0  0  0  0
    8.8217    1.9507    0.0000 C   0  0  1  0  0  0  0  0  0  0  0  0
    7.2641    0.2350    0.0000 C   0  0  2  0  0  0  0  0  0  0  0  0
    8.2300   -0.0238    0.0000 C   0  0  0  0  0  0  0  0  0  0  0  0
   10.2110    1.3986    0.0000 C   0  0  2  0  0  0  0  0  0  0  0  0
    8.1923    3.2997    0.0000 C   0  0  0  0  0  0  0  0  0  0  0  0
    9.7884    0.4923    0.0000 C   0  0  0  0  0  0  0  0  0  0  0  0
    7.3263    2.7997    0.0000 C   0  0  0  0  0  0  0  0  0  0  0  0
    6.3981   -0.2650    0.0000 C   0  0  1  0  0  0  0  0  0  0  0  0
   11.1507    1.7407    0.0000 C   0  0  0  0  0  0  0  0  0  0  0  0
    6.3981   -1.2650    0.0000 C   0  0  0  0  0  0  0  0  0  0  0  0
   11.9167    1.0979    0.0000 C   0  0  0  0  0  0  0  0  0  0  0  0
    5.5320   -1.7650    0.0000 C   0  0  0  0  0  0  0  0  0  0  0  0
    7.2641   -1.7650    0.0000 C   0  0  0  0  0  0  0  0  0  0  0  0
    5.5320   -2.7650    0.0000 C   0  0  0  0  0  0  0  0  0  0  0  0
    4.6381   -1.2303    0.0000 C   0  0  0  0  0  0  0  0  0  0  0  0
    7.2641   -2.7650    0.0000 C   0  0  0  0  0  0  0  0  0  0  0  0
    4.6381   -3.2997    0.0000 C   0  0  0  0  0  0  0  0  0  0  0  0
    3.7320   -1.7442    0.0000 C   0  0  0  0  0  0  0  0  0  0  0  0
    3.7320   -2.7858    0.0000 C   0  0  0  0  0  0  0  0  0  0  0  0
    2.0000   -1.7375    0.0000 C   0  0  0  0  0  0  0  0  0  0  0  0
 12  1  1  1  0  0  0
  2 22  1  0  0  0  0
  2 24  1  0  0  0  0
  3  6  1  0  0  0  0
  3 10  1  0  0  0  0
  3 11  1  0  0  0  0
  4 18  2  0  0  0  0
  4 20  1  0  0  0  0
  5  7  1  0  0  0  0
  5  8  1  0  0  0  0
  5  9  1  0  0  0  0
  6  7  1  0  0  0  0
  6 12  1  0  0  0  0
  8 10  1  0  0  0  0
  8 13  1  1  0  0  0
  9 11  1  0  0  0  0
 12 14  1  0  0  0  0
 13 15  2  0  0  0  0
 14 16  2  0  0  0  0
 14 17  1  0  0  0  0
 16 18  1  0  0  0  0
 16 19  1  0  0  0  0
 17 20  2  0  0  0  0
 18 21  1  0  0  0  0
 19 22  2  0  0  0  0
 21 23  2  0  0  0  0
 22 23  1  0  0  0  0
M  END
> <PUBCHEM_COMPOUND_CID>
94175

> <PUBCHEM_COMPOUND_CANONICALIZED>
1

> <PUBCHEM_CACTVS_COMPLEXITY>
457

> <PUBCHEM_CACTVS_HBOND_ACCEPTOR>
4

> <PUBCHEM_CACTVS_HBOND_DONOR>
1

> <PUBCHEM_CACTVS_ROTATABLE_BOND>
4

> <PUBCHEM_CACTVS_SUBSKEYS>
AAADceB7MAAAAAAAAAAAAAAAAAAAAAAAAAA8WLFiAAAAAACx8AAAHgAACAAADTzhngY+xvMIFgCgAzRnRACCiCAxIiAI2CA+bJgONuLEsZuEcChkwBHY+Aew4PwOgEABAAACAAAAgAIAAAQAAAAAAAAAAA==

> <PUBCHEM_IUPAC_OPENEYE_NAME>
(~{R})-(6-methoxy-4-quinolyl)-[(2~{R},4~{S},5~{R})-5-vinylquinuclidin-2-yl]methanol

> <PUBCHEM_IUPAC_CAS_NAME>
(~{R})-[(2~{R},4~{S},5~{R})-5-ethenyl-1-azabicyclo[2.2.2]octan-2-yl]-(6-methoxy-4-quinolinyl)methanol

> <PUBCHEM_IUPAC_NAME>
(~{R})-[(2~{R},4~{S},5~{R})-5-ethenyl-1-azabicyclo[2.2.2]octan-2-yl]-(6-methoxyquinolin-4-yl)methanol

> <PUBCHEM_IUPAC_SYSTEMATIC_NAME>
(~{R})-[(2~{R},4~{S},5~{R})-5-ethenyl-1-azabicyclo[2.2.2]octan-2-yl]-(6-methoxyquinolin-4-yl)methanol

> <PUBCHEM_IUPAC_TRADITIONAL_NAME>
(~{R})-(6-methoxy-4-quinolyl)-[(2~{R},4~{S},5~{R})-5-vinylquinuclidin-2-yl]methanol

> <PUBCHEM_IUPAC_INCHI>
InChI=1S/C20H24N2O2/c1-3-13-12-22-9-7-14(13)10-19(22)20(23)16-6-8-21-18-5-4-15(24-2)11-17(16)18/h3-6,8,11,13-14,19-20,23H,1,7,9-10,12H2,2H3/t13-,14-,19+,20+/m0/s1

> <PUBCHEM_IUPAC_INCHIKEY>
LOUPRKONTZGTKE-AFHBHXEDSA-N

> <PUBCHEM_XLOGP3>
2.9

> <PUBCHEM_EXACT_MASS>
324.184

> <PUBCHEM_MOLECULAR_FORMULA>
C20H24N2O2

> <PUBCHEM_MOLECULAR_WEIGHT>
324.424

> <PUBCHEM_OPENEYE_CAN_SMILES>
COC1=CC2=C(C=CN=C2C=C1)C(C3CC4CCN3CC4C=C)O

> <PUBCHEM_OPENEYE_ISO_SMILES>
COC1=CC2=C(C=CN=C2C=C1)[C@H]([C@H]3C[C@@H]4CCN3C[C@@H]4C=C)O

> <PUBCHEM_CACTVS_TPSA>
45.6

> <PUBCHEM_MONOISOTOPIC_WEIGHT>
324.184

> <PUBCHEM_TOTAL_CHARGE>
0

> <PUBCHEM_HEAVY_ATOM_COUNT>
24

> <PUBCHEM_ATOM_DEF_STEREO_COUNT>
4

> <PUBCHEM_ATOM_UDEF_STEREO_COUNT>
0

> <PUBCHEM_BOND_DEF_STEREO_COUNT>
0

> <PUBCHEM_BOND_UDEF_STEREO_COUNT>
0

> <PUBCHEM_ISOTOPIC_ATOM_COUNT>
0

> <PUBCHEM_COMPONENT_COUNT>
1

> <PUBCHEM_CACTVS_TAUTO_COUNT>
-1

> <PUBCHEM_COORDINATE_TYPE>
1
5
255

> <PUBCHEM_BONDANNOTATIONS>
12  1  5
14  16  8
14  17  8
16  18  8
16  19  8
17  20  8
18  21  8
19  22  8
21  23  8
22  23  8
4  18  8
4  20  8
5  25  5
6  26  5
8  13  5

$$$$
7703
  -OEChem-02061913072D

 11 11  0     0  0  0  0  0  0999 V2000
    2.8660   -2.5000    0.0000 O   0  0  0  0  0  0  0  0  0  0  0  0
    2.8660    0.5000    0.0000 C   0  0  0  0  0  0  0  0  0  0  0  0
    2.0000    0.0000    0.0000 C   0  0  0  0  0  0  0  0  0  0  0  0
    3.7320   -0.0000    0.0000 C   0  0  0  0  0  0  0  0  0  0  0  0
    2.8660   -1.5000    0.0000 C   0  0  0  0  0  0  0  0  0  0  0  0
    2.0000   -1.0000    0.0000 C   0  0  0  0  0  0  0  0  0  0  0  0
    3.7320   -1.0000    0.0000 C   0  0  0  0  0  0  0  0  0  0  0  0
    2.8660    1.5000    0.0000 C   0  0  0  0  0  0  0  0  0  0  0  0
    3.7320    2.0000    0.0000 C   0  0  0  0  0  0  0  0  0  0  0  0
    3.7320    3.0000    0.0000 C   0  0  0  0  0  0  0  0  0  0  0  0
    2.0000   -3.0000    0.0000 C   0  0  0  0  0  0  0  0  0  0  0  0
  1  5  1  0  0  0  0
  1 11  1  0  0  0  0
  2  3  2  0  0  0  0
  2  4  1  0  0  0  0
  2  8  1  0  0  0  0
  3  6  1  0  0  0  0
  4  7  2  0  0  0  0
  5  6  2  0  0  0  0
  5  7  1  0  0  0  0
  8  9  2  3  0  0  0
  9 10  1  0  0  0  0
M  END
> <PUBCHEM_COMPOUND_CID>
7703

> <PUBCHEM_COMPOUND_CANONICALIZED>
1

> <PUBCHEM_CACTVS_COMPLEXITY>
121

> <PUBCHEM_CACTVS_HBOND_ACCEPTOR>
1

> <PUBCHEM_CACTVS_HBOND_DONOR>
0

> <PUBCHEM_CACTVS_ROTATABLE_BOND>
2

> <PUBCHEM_CACTVS_SUBSKEYS>
AAADccBwIAAAAAAAAAAAAAAAAAAAAAAAAAAwAAAAAAAAAAABAAAAGgAAAAAADASAmAIyBoAABACAAiBCAAACCAAgIAAIiAAGCIgMJiKEMRqAMCAkwBEIqAeAwAAOIAAAAAAAAABAAAAAAAAAAAAAAAAAAA==

> <PUBCHEM_IUPAC_OPENEYE_NAME>
1-methoxy-4-prop-1-enyl-benzene

> <PUBCHEM_IUPAC_CAS_NAME>
1-methoxy-4-prop-1-enylbenzene

> <PUBCHEM_IUPAC_NAME>
1-methoxy-4-prop-1-enylbenzene

> <PUBCHEM_IUPAC_SYSTEMATIC_NAME>
1-methoxy-4-prop-1-enyl-benzene

> <PUBCHEM_IUPAC_TRADITIONAL_NAME>
anethole

> <PUBCHEM_IUPAC_INCHI>
InChI=1S/C10H12O/c1-3-4-9-5-7-10(11-2)8-6-9/h3-8H,1-2H3

> <PUBCHEM_IUPAC_INCHIKEY>
RUVINXPYWBROJD-UHFFFAOYSA-N

> <PUBCHEM_XLOGP3>
3.3

> <PUBCHEM_EXACT_MASS>
148.089

> <PUBCHEM_MOLECULAR_FORMULA>
C10H12O

> <PUBCHEM_MOLECULAR_WEIGHT>
148.205

> <PUBCHEM_OPENEYE_CAN_SMILES>
CC=CC1=CC=C(C=C1)OC

> <PUBCHEM_OPENEYE_ISO_SMILES>
CC=CC1=CC=C(C=C1)OC

> <PUBCHEM_CACTVS_TPSA>
9.2

> <PUBCHEM_MONOISOTOPIC_WEIGHT>
148.089

> <PUBCHEM_TOTAL_CHARGE>
0

> <PUBCHEM_HEAVY_ATOM_COUNT>
11

> <PUBCHEM_ATOM_DEF_STEREO_COUNT>
0

> <PUBCHEM_ATOM_UDEF_STEREO_COUNT>
0

> <PUBCHEM_BOND_DEF_STEREO_COUNT>
0

> <PUBCHEM_BOND_UDEF_STEREO_COUNT>
1

> <PUBCHEM_ISOTOPIC_ATOM_COUNT>
0

> <PUBCHEM_COMPONENT_COUNT>
1

> <PUBCHEM_CACTVS_TAUTO_COUNT>
-1

> <PUBCHEM_COORDINATE_TYPE>
1
5
255

> <PUBCHEM_BONDANNOTATIONS>
2  3  8
2  4  8
3  6  8
4  7  8
5  6  8
5  7  8
8  9  1

$$$$
3610
  -OEChem-02061913062D

 14 14  0     0  0  0  0  0  0999 V2000
    2.5369   -0.5950    0.0000 O   0  0  0  0  0  0  0  0  0  0  0  0
    4.2690   -3.5950    0.0000 O   0  0  0  0  0  0  0  0  0  0  0  0
    5.1350    1.9050    0.0000 C   0  0  0  0  0  0  0  0  0  0  0  0
    5.1350    0.9050    0.0000 C   0  0  0  0  0  0  0  0  0  0  0  0
    6.0010    2.4050    0.0000 C   0  0  0  0  0  0  0  0  0  0  0  0
    4.2690    0.4050    0.0000 C   0  0  0  0  0  0  0  0  0  0  0  0
    6.0010    3.4050    0.0000 C   0  0  0  0  0  0  0  0  0  0  0  0
    4.2690   -0.5950    0.0000 C   0  0  0  0  0  0  0  0  0  0  0  0
    6.8671    3.9050    0.0000 C   0  0  0  0  0  0  0  0  0  0  0  0
    3.4030   -1.0950    0.0000 C   0  0  0  0  0  0  0  0  0  0  0  0
    5.1350   -1.0950    0.0000 C   0  0  0  0  0  0  0  0  0  0  0  0
    3.4030   -2.0950    0.0000 C   0  0  0  0  0  0  0  0  0  0  0  0
    5.1350   -2.0950    0.0000 C   0  0  0  0  0  0  0  0  0  0  0  0
    4.2690   -2.5950    0.0000 C   0  0  0  0  0  0  0  0  0  0  0  0
  1 10  1  0  0  0  0
  2 14  1  0  0  0  0
  3  4  1  0  0  0  0
  3  5  1  0  0  0  0
  4  6  1  0  0  0  0
  5  7  1  0  0  0  0
  6  8  1  0  0  0  0
  7  9  1  0  0  0  0
  8 10  2  0  0  0  0
  8 11  1  0  0  0  0
 10 12  1  0  0  0  0
 11 13  2  0  0  0  0
 12 14  2  0  0  0  0
 13 14  1  0  0  0  0
M  END
> <PUBCHEM_COMPOUND_CID>
3610

> <PUBCHEM_COMPOUND_CANONICALIZED>
1

> <PUBCHEM_CACTVS_COMPLEXITY>
147

> <PUBCHEM_CACTVS_HBOND_ACCEPTOR>
2

> <PUBCHEM_CACTVS_HBOND_DONOR>
2

> <PUBCHEM_CACTVS_ROTATABLE_BOND>
5

> <PUBCHEM_CACTVS_SUBSKEYS>
AAADceBwMAAAAAAAAAAAAAAAAAAAAAAAAAAwAAAAAAAAAAABAAAAGgAACAAADASAmAAyBoAAAgCAAiBCAAACAAAgIAAIiAAGCIgIJyKCERKAcAAlwBUImAeA4OQOIAAACAAIAABAAAAQABAAAAAAAAAAAA==

> <PUBCHEM_IUPAC_OPENEYE_NAME>
4-hexylbenzene-1,3-diol

> <PUBCHEM_IUPAC_CAS_NAME>
4-hexylbenzene-1,3-diol

> <PUBCHEM_IUPAC_NAME>
4-hexylbenzene-1,3-diol

> <PUBCHEM_IUPAC_SYSTEMATIC_NAME>
4-hexylbenzene-1,3-diol

> <PUBCHEM_IUPAC_TRADITIONAL_NAME>
4-hexylresorcinol

> <PUBCHEM_IUPAC_INCHI>
InChI=1S/C12H18O2/c1-2-3-4-5-6-10-7-8-11(13)9-12(10)14/h7-9,13-14H,2-6H2,1H3

> <PUBCHEM_IUPAC_INCHIKEY>
WFJIVOKAWHGMBH-UHFFFAOYSA-N

> <PUBCHEM_XLOGP3>
3.5

> <PUBCHEM_EXACT_MASS>
194.131

> <PUBCHEM_MOLECULAR_FORMULA>
C12H18O2

> <PUBCHEM_MOLECULAR_WEIGHT>
194.274

> <PUBCHEM_OPENEYE_CAN_SMILES>
CCCCCCC1=C(C=C(C=C1)O)O

> <PUBCHEM_OPENEYE_ISO_SMILES>
CCCCCCC1=C(C=C(C=C1)O)O

> <PUBCHEM_CACTVS_TPSA>
40.5

> <PUBCHEM_MONOISOTOPIC_WEIGHT>
194.131

> <PUBCHEM_TOTAL_CHARGE>
0

> <PUBCHEM_HEAVY_ATOM_COUNT>
14

> <PUBCHEM_ATOM_DEF_STEREO_COUNT>
0

> <PUBCHEM_ATOM_UDEF_STEREO_COUNT>
0

> <PUBCHEM_BOND_DEF_STEREO_COUNT>
0

> <PUBCHEM_BOND_UDEF_STEREO_COUNT>
0

> <PUBCHEM_ISOTOPIC_ATOM_COUNT>
0

> <PUBCHEM_COMPONENT_COUNT>
1

> <PUBCHEM_CACTVS_TAUTO_COUNT>
-1

> <PUBCHEM_COORDINATE_TYPE>
1
5
255

> <PUBCHEM_BONDANNOTATIONS>
10  12  8
11  13  8
12  14  8
13  14  8
8  10  8
8  11  8

$$$$
8083
  -OEChem-02061913072D

  6  6  0     0  0  0  0  0  0999 V2000
    2.8660    1.3100    0.0000 O   0  0  0  0  0  0  0  0  0  0  0  0
    2.8660   -0.6900    0.0000 N   0  0  0  0  0  0  0  0  0  0  0  0
    3.7320   -0.1900    0.0000 C   0  0  0  0  0  0  0  0  0  0  0  0
    2.0000   -0.1900    0.0000 C   0  0  0  0  0  0  0  0  0  0  0  0
    3.7320    0.8100    0.0000 C   0  0  0  0  0  0  0  0  0  0  0  0
    2.0000    0.8100    0.0000 C   0  0  0  0  0  0  0  0  0  0  0  0
  1  5  1  0  0  0  0
  1  6  1  0  0  0  0
  2  3  1  0  0  0  0
  2  4  1  0  0  0  0
  3  5  1  0  0  0  0
  4  6  1  0  0  0  0
M  END
> <PUBCHEM_COMPOUND_CID>
8083

> <PUBCHEM_COMPOUND_CANONICALIZED>
1

> <PUBCHEM_CACTVS_COMPLEXITY>
34.5

> <PUBCHEM_CACTVS_HBOND_ACCEPTOR>
2

> <PUBCHEM_CACTVS_HBOND_DONOR>
1

> <PUBCHEM_CACTVS_ROTATABLE_BOND>
0

> <PUBCHEM_CACTVS_SUBSKEYS>
AAADccBiIAAAAAAAAAAAAAAAAAAAAAAAAAAsAAAAAAAAAAAAAAAAHgAQAAAAAADhgAYAAALABAAAAAAAAAAAAAAAAAAAAIAIAAACAAAAAAADAAAAEACQAAAAAAAAAAAAAAAAAAAAAAAAAAAAAAAAAAAAAA==

> <PUBCHEM_IUPAC_OPENEYE_NAME>
morpholine

> <PUBCHEM_IUPAC_CAS_NAME>
morpholine

> <PUBCHEM_IUPAC_NAME>
morpholine

> <PUBCHEM_IUPAC_SYSTEMATIC_NAME>
morpholine

> <PUBCHEM_IUPAC_TRADITIONAL_NAME>
morpholine

> <PUBCHEM_IUPAC_INCHI>
InChI=1S/C4H9NO/c1-3-6-4-2-5-1/h5H,1-4H2

> <PUBCHEM_IUPAC_INCHIKEY>
YNAVUWVOSKDBBP-UHFFFAOYSA-N

> <PUBCHEM_XLOGP3>
-0.9

> <PUBCHEM_EXACT_MASS>
87.068

> <PUBCHEM_MOLECULAR_FORMULA>
C4H9NO

> <PUBCHEM_MOLECULAR_WEIGHT>
87.122

> <PUBCHEM_OPENEYE_CAN_SMILES>
C1COCCN1

> <PUBCHEM_OPENEYE_ISO_SMILES>
C1COCCN1

> <PUBCHEM_CACTVS_TPSA>
21.3

> <PUBCHEM_MONOISOTOPIC_WEIGHT>
87.068

> <PUBCHEM_TOTAL_CHARGE>
0

> <PUBCHEM_HEAVY_ATOM_COUNT>
6

> <PUBCHEM_ATOM_DEF_STEREO_COUNT>
0

> <PUBCHEM_ATOM_UDEF_STEREO_COUNT>
0

> <PUBCHEM_BOND_DEF_STEREO_COUNT>
0

> <PUBCHEM_BOND_UDEF_STEREO_COUNT>
0

> <PUBCHEM_ISOTOPIC_ATOM_COUNT>
0

> <PUBCHEM_COMPONENT_COUNT>
1

> <PUBCHEM_CACTVS_TAUTO_COUNT>
-1

> <PUBCHEM_COORDINATE_TYPE>
1
5
255

$$$$
7583
  -OEChem-02061913072D

 13 14  0     0  0  0  0  0  0999 V2000
    2.8660    0.5000    0.0000 O   0  0  0  0  0  0  0  0  0  0  0  0
    2.8660   -0.5000    0.0000 C   0  0  0  0  0  0  0  0  0  0  0  0
    3.7320    1.0000    0.0000 C   0  0  0  0  0  0  0  0  0  0  0  0
    2.0000   -1.0000    0.0000 C   0  0  0  0  0  0  0  0  0  0  0  0
    4.5981    0.5000    0.0000 C   0  0  0  0  0  0  0  0  0  0  0  0
    3.7320   -1.0000    0.0000 C   0  0  0  0  0  0  0  0  0  0  0  0
    3.7320    2.0000    0.0000 C   0  0  0  0  0  0  0  0  0  0  0  0
    2.0000   -2.0000    0.0000 C   0  0  0  0  0  0  0  0  0  0  0  0
    5.4641    1.0000    0.0000 C   0  0  0  0  0  0  0  0  0  0  0  0
    3.7320   -2.0000    0.0000 C   0  0  0  0  0  0  0  0  0  0  0  0
    4.5981    2.5000    0.0000 C   0  0  0  0  0  0  0  0  0  0  0  0
    5.4641    2.0000    0.0000 C   0  0  0  0  0  0  0  0  0  0  0  0
    2.8660   -2.5000    0.0000 C   0  0  0  0  0  0  0  0  0  0  0  0
  1  2  1  0  0  0  0
  1  3  1  0  0  0  0
  2  4  2  0  0  0  0
  2  6  1  0  0  0  0
  3  5  2  0  0  0  0
  3  7  1  0  0  0  0
  4  8  1  0  0  0  0
  5  9  1  0  0  0  0
  6 10  2  0  0  0  0
  7 11  2  0  0  0  0
  8 13  2  0  0  0  0
  9 12  2  0  0  0  0
 10 13  1  0  0  0  0
 11 12  1  0  0  0  0
M  END
> <PUBCHEM_COMPOUND_CID>
7583

> <PUBCHEM_COMPOUND_CANONICALIZED>
1

> <PUBCHEM_CACTVS_COMPLEXITY>
116

> <PUBCHEM_CACTVS_HBOND_ACCEPTOR>
1

> <PUBCHEM_CACTVS_HBOND_DONOR>
0

> <PUBCHEM_CACTVS_ROTATABLE_BOND>
2

> <PUBCHEM_CACTVS_SUBSKEYS>
AAADccBwIAAAAAAAAAAAAAAAAAAAAAAAAAAwYAAAAAAAAAABQAAAGgAAAAAACASAkAAwBoAABACAACBCAAACCAAgIAAIiAAGCIgMJiKEMRqCOCCkwBEIqAeAQAAAAAAAAAAAAAAAAAAAAAAAAAAAAAAAAA==

> <PUBCHEM_IUPAC_OPENEYE_NAME>
phenoxybenzene

> <PUBCHEM_IUPAC_CAS_NAME>
phenoxybenzene

> <PUBCHEM_IUPAC_NAME>
phenoxybenzene

> <PUBCHEM_IUPAC_SYSTEMATIC_NAME>
phenoxybenzene

> <PUBCHEM_IUPAC_TRADITIONAL_NAME>
phenoxybenzene

> <PUBCHEM_IUPAC_INCHI>
InChI=1S/C12H10O/c1-3-7-11(8-4-1)13-12-9-5-2-6-10-12/h1-10H

> <PUBCHEM_IUPAC_INCHIKEY>
USIUVYZYUHIAEV-UHFFFAOYSA-N

> <PUBCHEM_XLOGP3>
4.2

> <PUBCHEM_EXACT_MASS>
170.073

> <PUBCHEM_MOLECULAR_FORMULA>
C12H10O

> <PUBCHEM_MOLECULAR_WEIGHT>
170.211

> <PUBCHEM_OPENEYE_CAN_SMILES>
C1=CC=C(C=C1)OC2=CC=CC=C2

> <PUBCHEM_OPENEYE_ISO_SMILES>
C1=CC=C(C=C1)OC2=CC=CC=C2

> <PUBCHEM_CACTVS_TPSA>
9.2

> <PUBCHEM_MONOISOTOPIC_WEIGHT>
170.073

> <PUBCHEM_TOTAL_CHARGE>
0

> <PUBCHEM_HEAVY_ATOM_COUNT>
13

> <PUBCHEM_ATOM_DEF_STEREO_COUNT>
0

> <PUBCHEM_ATOM_UDEF_STEREO_COUNT>
0

> <PUBCHEM_BOND_DEF_STEREO_COUNT>
0

> <PUBCHEM_BOND_UDEF_STEREO_COUNT>
0

> <PUBCHEM_ISOTOPIC_ATOM_COUNT>
0

> <PUBCHEM_COMPONENT_COUNT>
1

> <PUBCHEM_CACTVS_TAUTO_COUNT>
-1

> <PUBCHEM_COORDINATE_TYPE>
1
5
255

> <PUBCHEM_BONDANNOTATIONS>
10  13  8
11  12  8
2  4  8
2  6  8
3  5  8
3  7  8
4  8  8
5  9  8
6  10  8
7  11  8
8  13  8
9  12  8

$$$$
442021
  -OEChem-02061913092D

 29 35  0     1  0  0  0  0  0999 V2000
    8.5342   -2.0573    0.0000 O   0  0  0  0  0  0  0  0  0  0  0  0
    5.2671   -2.0952    0.0000 O   0  0  0  0  0  0  0  0  0  0  0  0
    2.8660    1.2152    0.0000 O   0  0  0  0  0  0  0  0  0  0  0  0
    2.8660   -0.7090    0.0000 O   0  0  0  0  0  0  0  0  0  0  0  0
    7.5417    2.0813    0.0000 N   0  0  3  0  0  0  0  0  0  0  0  0
    6.1331   -0.6711    0.0000 N   0  0  0  0  0  0  0  0  0  0  0  0
    6.9335    0.7152    0.0000 C   0  0  2  0  0  0  0  0  0  0  0  0
    6.9335   -0.2090    0.0000 C   0  0  2  0  0  0  0  0  0  0  0  0
    7.7339    1.1773    0.0000 C   0  0  2  0  0  0  0  0  0  0  0  0
    7.7339   -0.6711    0.0000 C   0  0  1  0  0  0  0  0  0  0  0  0
    8.5342   -0.2090    0.0000 C   0  0  1  0  0  0  0  0  0  0  0  0
    8.5342    0.7152    0.0000 C   0  0  0  0  0  0  0  0  0  0  0  0
    6.2467    1.3336    0.0000 C   0  0  0  0  0  0  0  0  0  0  0  0
    5.3328    0.7152    0.0000 C   0  0  0  0  0  0  0  0  0  0  0  0
    6.6226    2.1779    0.0000 C   0  0  0  0  0  0  0  0  0  0  0  0
    7.7339   -1.5952    0.0000 C   0  0  2  0  0  0  0  0  0  0  0  0
    9.3945   -0.5466    0.0000 C   0  0  0  0  0  0  0  0  0  0  0  0
    9.3587    1.2800    0.0000 C   0  0  0  0  0  0  0  0  0  0  0  0
    5.3328   -0.2090    0.0000 C   0  0  0  0  0  0  0  0  0  0  0  0
    6.9335   -2.0573    0.0000 C   0  0  0  0  0  0  0  0  0  0  0  0
    6.1331   -1.5952    0.0000 C   0  0  0  0  0  0  0  0  0  0  0  0
    4.5324    1.1773    0.0000 C   0  0  0  0  0  0  0  0  0  0  0  0
    9.7078   -1.1845    0.0000 C   0  0  0  0  0  0  0  0  0  0  0  0
    9.2560   -2.0471    0.0000 C   0  0  0  0  0  0  0  0  0  0  0  0
    4.5324   -0.6711    0.0000 C   0  0  0  0  0  0  0  0  0  0  0  0
    3.7320    0.7152    0.0000 C   0  0  0  0  0  0  0  0  0  0  0  0
    3.7320   -0.2090    0.0000 C   0  0  0  0  0  0  0  0  0  0  0  0
    2.8660    2.2152    0.0000 C   0  0  0  0  0  0  0  0  0  0  0  0
    2.0000   -0.2090    0.0000 C   0  0  0  0  0  0  0  0  0  0  0  0
  1 16  1  0  0  0  0
  1 24  1  0  0  0  0
  2 21  2  0  0  0  0
  3 26  1  0  0  0  0
  3 28  1  0  0  0  0
  4 27  1  0  0  0  0
  4 29  1  0  0  0  0
  5  9  1  0  0  0  0
  5 15  1  0  0  0  0
  5 18  1  0  0  0  0
  6  8  1  0  0  0  0
  6 19  1  0  0  0  0
  6 21  1  0  0  0  0
  7  8  1  0  0  0  0
  7  9  1  0  0  0  0
  7 13  1  0  0  0  0
  7 14  1  6  0  0  0
  8 10  1  0  0  0  0
  9 12  1  0  0  0  0
 10 11  1  0  0  0  0
 10 16  1  0  0  0  0
 11 12  1  0  0  0  0
 11 17  1  0  0  0  0
 13 15  1  0  0  0  0
 14 19  1  0  0  0  0
 14 22  2  0  0  0  0
 16 20  1  0  0  0  0
 17 18  1  0  0  0  0
 17 23  2  0  0  0  0
 19 25  2  0  0  0  0
 20 21  1  0  0  0  0
 22 26  1  0  0  0  0
 23 24  1  0  0  0  0
 25 27  1  0  0  0  0
 26 27  2  0  0  0  0
M  END
> <PUBCHEM_COMPOUND_CID>
442021

> <PUBCHEM_COMPOUND_CANONICALIZED>
1

> <PUBCHEM_CACTVS_COMPLEXITY>
785

> <PUBCHEM_CACTVS_HBOND_ACCEPTOR>
5

> <PUBCHEM_CACTVS_HBOND_DONOR>
0

> <PUBCHEM_CACTVS_ROTATABLE_BOND>
2

> <PUBCHEM_CACTVS_SUBSKEYS>
AAADceB7OAAAAAAAAAAAAAAAAAAAAWLAAAA8eIEABAAAAFgBAAAAHgAAAAAADzzhmAYyxoMABACIAiVSUACCCAAhIgAAiAEO7IgNJjbE8ZuGMCpm5hnK6Ae42fOfoEABAgACQADQgAaECCSAAAAAAAAAAA==

> <PUBCHEM_IUPAC_OPENEYE_NAME>
(4~{a}~{R},5~{a}~{S},8~{a}~{R},13~{a}~{S},15~{a}~{S},15~{b}~{R})-10,11-dimethoxy-4~{a},5,5~{a},7,8,13~{a},15,15~{a},15~{b},16-decahydro-2~{H}-4,6-methanoindolo[3,2,1-ij]oxepino[2,3,4-de]pyrrolo[2,3-h]quinolin-14-one

> <PUBCHEM_IUPAC_CAS_NAME>
(4~{a}~{R},5~{a}~{S},8~{a}~{R},13~{a}~{S},15~{a}~{S},15~{b}~{R})-10,11-dimethoxy-4~{a},5,5~{a},7,8,13~{a},15,15~{a},15~{b},16-decahydro-2~{H}-4,6-methanoindolo[3,2,1-ij]oxepino[2,3,4-de]pyrrolo[2,3-h]quinolin-14-one

> <PUBCHEM_IUPAC_NAME>
(4~{a}~{R},5~{a}~{S},8~{a}~{R},13~{a}~{S},15~{a}~{S},15~{b}~{R})-10,11-dimethoxy-4~{a},5,5~{a},7,8,13~{a},15,15~{a},15~{b},16-decahydro-2~{H}-4,6-methanoindolo[3,2,1-ij]oxepino[2,3,4-de]pyrrolo[2,3-h]quinolin-14-one

> <PUBCHEM_IUPAC_SYSTEMATIC_NAME>
(4~{a}~{R},5~{a}~{S},8~{a}~{R},13~{a}~{S},15~{a}~{S},15~{b}~{R})-10,11-dimethoxy-4~{a},5,5~{a},7,8,13~{a},15,15~{a},15~{b},16-decahydro-2~{H}-4,6-methanoindolo[3,2,1-ij]oxepino[2,3,4-de]pyrrolo[2,3-h]quinolin-14-one

> <PUBCHEM_IUPAC_TRADITIONAL_NAME>
(4~{a}~{R},5~{a}~{S},8~{a}~{R},13~{a}~{S},15~{a}~{S},15~{b}~{R})-10,11-dimethoxy-4~{a},5,5~{a},7,8,13~{a},15,15~{a},15~{b},16-decahydro-2~{H}-4,6-methanoindolo[3,2,1-ij]oxepino[2,3,4-de]pyrrolo[2,3-h]quinolin-14-one

> <PUBCHEM_IUPAC_INCHI>
InChI=1S/C23H26N2O4/c1-27-16-8-14-15(9-17(16)28-2)25-20(26)10-18-21-13-7-19-23(14,22(21)25)4-5-24(19)11-12(13)3-6-29-18/h3,8-9,13,18-19,21-22H,4-7,10-11H2,1-2H3/t13-,18-,19-,21-,22-,23+/m0/s1

> <PUBCHEM_IUPAC_INCHIKEY>
RRKTZKIUPZVBMF-IBTVXLQLSA-N

> <PUBCHEM_XLOGP3>
1

> <PUBCHEM_EXACT_MASS>
394.189

> <PUBCHEM_MOLECULAR_FORMULA>
C23H26N2O4

> <PUBCHEM_MOLECULAR_WEIGHT>
394.471

> <PUBCHEM_OPENEYE_CAN_SMILES>
COC1=C(C=C2C(=C1)C34CCN5C3CC6C7C4N2C(=O)CC7OCC=C6C5)OC

> <PUBCHEM_OPENEYE_ISO_SMILES>
COC1=C(C=C2C(=C1)[C@]34CCN5[C@H]3C[C@@H]6[C@@H]7[C@@H]4N2C(=O)C[C@@H]7OCC=C6C5)OC

> <PUBCHEM_CACTVS_TPSA>
51.2

> <PUBCHEM_MONOISOTOPIC_WEIGHT>
394.189

> <PUBCHEM_TOTAL_CHARGE>
0

> <PUBCHEM_HEAVY_ATOM_COUNT>
29

> <PUBCHEM_ATOM_DEF_STEREO_COUNT>
6

> <PUBCHEM_ATOM_UDEF_STEREO_COUNT>
0

> <PUBCHEM_BOND_DEF_STEREO_COUNT>
0

> <PUBCHEM_BOND_UDEF_STEREO_COUNT>
0

> <PUBCHEM_ISOTOPIC_ATOM_COUNT>
0

> <PUBCHEM_COMPONENT_COUNT>
1

> <PUBCHEM_CACTVS_TAUTO_COUNT>
-1

> <PUBCHEM_COORDINATE_TYPE>
1
5
255

> <PUBCHEM_BONDANNOTATIONS>
10  32  6
11  33  6
14  19  8
14  22  8
16  40  6
19  25  8
22  26  8
25  27  8
26  27  8
7  14  6
8  30  5
9  31  6

$$$$
91884638
  -OEChem-02061914562D

 29 31  0     1  0  0  0  0  0999 V2000
    5.4641   -4.8465    0.0000 O   0  0  0  0  0  0  0  0  0  0  0  0
    5.4641    1.1535    0.0000 C   0  0  2  0  0  0  0  0  0  0  0  0
    6.4103    1.4582    0.0000 C   0  0  2  0  0  0  0  0  0  0  0  0
    5.4641    0.1535    0.0000 C   0  0  3  0  0  0  0  0  0  0  0  0
    6.9939    0.6535    0.0000 C   0  0  0  0  0  0  0  0  0  0  0  0
    6.4103   -0.1512    0.0000 C   0  0  0  0  0  0  0  0  0  0  0  0
    4.5981    1.6535    0.0000 C   0  0  0  0  0  0  0  0  0  0  0  0
    6.7210    2.4087    0.0000 C   0  0  2  0  0  0  0  0  0  0  0  0
    4.5981   -0.3465    0.0000 C   0  0  0  0  0  0  0  0  0  0  0  0
    5.4641    2.1535    0.0000 C   0  0  0  0  0  0  0  0  0  0  0  0
    3.7320    1.1535    0.0000 C   0  0  0  0  0  0  0  0  0  0  0  0
    3.7320    0.1535    0.0000 C   0  0  0  0  0  0  0  0  0  0  0  0
    6.0531    3.1530    0.0000 C   0  0  0  0  0  0  0  0  0  0  0  0
    7.6995    2.6150    0.0000 C   0  0  0  0  0  0  0  0  0  0  0  0
    4.5981   -1.3465    0.0000 C   0  0  0  0  0  0  0  0  0  0  0  0
    8.0102    3.5655    0.0000 C   0  0  0  0  0  0  0  0  0  0  0  0
    3.7320   -1.8465    0.0000 C   0  0  0  0  0  0  0  0  0  0  0  0
    8.9887    3.7717    0.0000 C   0  0  1  0  0  0  0  0  0  0  0  0
    3.7320   -2.8465    0.0000 C   0  0  0  0  0  0  0  0  0  0  0  0
    9.2993    4.7222    0.0000 C   0  0  0  0  0  0  0  0  0  0  0  0
    4.5981   -3.3465    0.0000 C   0  0  0  0  0  0  0  0  0  0  0  0
    9.6565    3.0274    0.0000 C   0  0  0  0  0  0  0  0  0  0  0  0
    2.8660   -3.3465    0.0000 C   0  0  0  0  0  0  0  0  0  0  0  0
    4.5981   -4.3465    0.0000 C   0  0  2  0  0  0  0  0  0  0  0  0
    2.8660   -4.3465    0.0000 C   0  0  0  0  0  0  0  0  0  0  0  0
    3.7320   -4.8465    0.0000 C   0  0  0  0  0  0  0  0  0  0  0  0
   10.2778    4.9284    0.0000 C   0  0  0  0  0  0  0  0  0  0  0  0
    8.6315    5.4665    0.0000 C   0  0  0  0  0  0  0  0  0  0  0  0
    2.0000   -2.8465    0.0000 C   0  0  0  0  0  0  0  0  0  0  0  0
 24  1  1  1  0  0  0
  2  3  1  0  0  0  0
  2  4  1  0  0  0  0
  2  7  1  0  0  0  0
  2 10  1  1  0  0  0
  3  5  1  0  0  0  0
  3  8  1  0  0  0  0
  4  6  1  0  0  0  0
  4  9  1  0  0  0  0
  5  6  1  0  0  0  0
  7 11  1  0  0  0  0
  8 13  1  6  0  0  0
  8 14  1  0  0  0  0
  9 12  1  0  0  0  0
  9 15  2  3  0  0  0
 11 12  1  0  0  0  0
 14 16  2  0  0  0  0
 15 17  1  0  0  0  0
 16 18  1  0  0  0  0
 17 19  2  0  0  0  0
 18 20  1  0  0  0  0
 18 22  1  1  0  0  0
 19 21  1  0  0  0  0
 19 23  1  0  0  0  0
 20 27  1  0  0  0  0
 20 28  1  0  0  0  0
 21 24  1  0  0  0  0
 23 25  1  0  0  0  0
 23 29  2  0  0  0  0
 24 26  1  0  0  0  0
 25 26  1  0  0  0  0
M  END
> <PUBCHEM_COMPOUND_CID>
91884638

> <PUBCHEM_COMPOUND_CANONICALIZED>
1

> <PUBCHEM_CACTVS_COMPLEXITY>
678

> <PUBCHEM_CACTVS_HBOND_ACCEPTOR>
1

> <PUBCHEM_CACTVS_HBOND_DONOR>
1

> <PUBCHEM_CACTVS_ROTATABLE_BOND>
5

> <PUBCHEM_CACTVS_SUBSKEYS>
AAADcfB4IAAAAAAAAAAAAAAAAAAAAYAAAAAwYAAAAAAAAGAAAAAAGgAACAAADxSggAICAAAAAgCAAiBCAAAAAAAgAAAICAAAAAgIEAIAAQAAQAAEwAAIgAOAwMAPgAAAAAAAAAAAAAAAACAAAQAACAAAAA==

> <PUBCHEM_IUPAC_OPENEYE_NAME>
(1~{S},3~{E})-3-[2-[(1~{R},7~{a}~{R})-7~{a}-methyl-1-[(~{E},1~{R},4~{R})-1,4,5-trimethylhex-2-enyl]-2,3,3~{a},5,6,7-hexahydro-1~{H}-inden-4-ylidene]ethylidene]-4-methylene-cyclohexanol

> <PUBCHEM_IUPAC_CAS_NAME>
(1~{S},3~{E})-3-[2-[(1~{R},7~{a}~{R})-1-[(~{E},2~{R},5~{R})-5,6-dimethylhept-3-en-2-yl]-7~{a}-methyl-2,3,3~{a},5,6,7-hexahydro-1~{H}-inden-4-ylidene]ethylidene]-4-methylene-1-cyclohexanol

> <PUBCHEM_IUPAC_NAME>
(1~{S},3~{E})-3-[2-[(1~{R},7~{a}~{R})-1-[(~{E},2~{R},5~{R})-5,6-dimethylhept-3-en-2-yl]-7~{a}-methyl-2,3,3~{a},5,6,7-hexahydro-1~{H}-inden-4-ylidene]ethylidene]-4-methylidenecyclohexan-1-ol

> <PUBCHEM_IUPAC_SYSTEMATIC_NAME>
(1~{S},3~{E})-3-[2-[(1~{R},7~{a}~{R})-1-[(~{E},2~{R},5~{R})-5,6-dimethylhept-3-en-2-yl]-7~{a}-methyl-2,3,3~{a},5,6,7-hexahydro-1~{H}-inden-4-ylidene]ethylidene]-4-methylidene-cyclohexan-1-ol

> <PUBCHEM_IUPAC_TRADITIONAL_NAME>
(1~{S},3~{E})-3-[2-[(1~{R},7~{a}~{R})-7~{a}-methyl-1-[(~{E},1~{R},4~{R})-1,4,5-trimethylhex-2-enyl]-2,3,3~{a},5,6,7-hexahydro-1~{H}-inden-4-ylidene]ethylidene]-4-methylene-cyclohexanol

> <PUBCHEM_IUPAC_INCHI>
InChI=1S/C28H44O/c1-19(2)20(3)9-10-22(5)26-15-16-27-23(8-7-17-28(26,27)6)12-13-24-18-25(29)14-11-21(24)4/h9-10,12-13,19-20,22,25-27,29H,4,7-8,11,14-18H2,1-3,5-6H3/b10-9+,23-12?,24-13+/t20-,22+,25-,26+,27?,28+/m0/s1

> <PUBCHEM_IUPAC_INCHIKEY>
MECHNRXZTMCUDQ-JMEYVXLBSA-N

> <PUBCHEM_XLOGP3_AA>
7.4

> <PUBCHEM_EXACT_MASS>
396.339

> <PUBCHEM_MOLECULAR_FORMULA>
C28H44O

> <PUBCHEM_MOLECULAR_WEIGHT>
396.659

> <PUBCHEM_OPENEYE_CAN_SMILES>
CC(C)C(C)C=CC(C)C1CCC2C1(CCCC2=CC=C3CC(CCC3=C)O)C

> <PUBCHEM_OPENEYE_ISO_SMILES>
C[C@H](/C=C/[C@H](C)C(C)C)[C@H]1CCC2[C@@]1(CCCC2=C/C=C/3\C[C@H](CCC3=C)O)C

> <PUBCHEM_CACTVS_TPSA>
20.2

> <PUBCHEM_MONOISOTOPIC_WEIGHT>
396.339

> <PUBCHEM_TOTAL_CHARGE>
0

> <PUBCHEM_HEAVY_ATOM_COUNT>
29

> <PUBCHEM_ATOM_DEF_STEREO_COUNT>
5

> <PUBCHEM_ATOM_UDEF_STEREO_COUNT>
1

> <PUBCHEM_BOND_DEF_STEREO_COUNT>
2

> <PUBCHEM_BOND_UDEF_STEREO_COUNT>
1

> <PUBCHEM_ISOTOPIC_ATOM_COUNT>
0

> <PUBCHEM_COMPONENT_COUNT>
1

> <PUBCHEM_CACTVS_TAUTO_COUNT>
-1

> <PUBCHEM_COORDINATE_TYPE>
1
5
255

> <PUBCHEM_BONDANNOTATIONS>
24  1  5
18  22  5
2  10  5
3  30  6
4  6  3
8  13  6
9  15  1

$$$$
6544
  -OEChem-02061913062D

 10 10  0     0  0  0  0  0  0999 V2000
    2.0000   -1.4330    0.0000 O   0  0  0  0  0  0  0  0  0  0  0  0
    3.7320    0.5670    0.0000 C   0  0  0  0  0  0  0  0  0  0  0  0
    4.5981    0.0670    0.0000 C   0  0  0  0  0  0  0  0  0  0  0  0
    2.8660    0.0670    0.0000 C   0  0  0  0  0  0  0  0  0  0  0  0
    4.2320    1.4330    0.0000 C   0  0  0  0  0  0  0  0  0  0  0  0
    3.2320    1.4330    0.0000 C   0  0  0  0  0  0  0  0  0  0  0  0
    4.5981   -0.9330    0.0000 C   0  0  0  0  0  0  0  0  0  0  0  0
    2.8660   -0.9330    0.0000 C   0  0  0  0  0  0  0  0  0  0  0  0
    3.7320   -1.4330    0.0000 C   0  0  0  0  0  0  0  0  0  0  0  0
    5.4641   -1.4330    0.0000 C   0  0  0  0  0  0  0  0  0  0  0  0
  1  8  2  0  0  0  0
  2  3  1  0  0  0  0
  2  4  1  0  0  0  0
  2  5  1  0  0  0  0
  2  6  1  0  0  0  0
  3  7  1  0  0  0  0
  4  8  1  0  0  0  0
  7  9  2  0  0  0  0
  7 10  1  0  0  0  0
  8  9  1  0  0  0  0
M  END
> <PUBCHEM_COMPOUND_CID>
6544

> <PUBCHEM_COMPOUND_CANONICALIZED>
1

> <PUBCHEM_CACTVS_COMPLEXITY>
187

> <PUBCHEM_CACTVS_HBOND_ACCEPTOR>
1

> <PUBCHEM_CACTVS_HBOND_DONOR>
0

> <PUBCHEM_CACTVS_ROTATABLE_BOND>
0

> <PUBCHEM_CACTVS_SUBSKEYS>
AAADccBwIAAAAAAAAAAAAAAAAAAAAAAAAAAgAAAAAAAAAAAAAAAAGgAAAAAADgSAgAACAAAAAACIAqBSAAAAAAAgAAAACAEAAEgAABIAAQAAAAAAgAAIAQMIiAAPAAAAAAAAAAAAAAAAAAAAAAAAAAAAAA==

> <PUBCHEM_IUPAC_OPENEYE_NAME>
3,5,5-trimethylcyclohex-2-en-1-one

> <PUBCHEM_IUPAC_CAS_NAME>
3,5,5-trimethyl-1-cyclohex-2-enone

> <PUBCHEM_IUPAC_NAME>
3,5,5-trimethylcyclohex-2-en-1-one

> <PUBCHEM_IUPAC_SYSTEMATIC_NAME>
3,5,5-trimethylcyclohex-2-en-1-one

> <PUBCHEM_IUPAC_TRADITIONAL_NAME>
3,5,5-trimethylcyclohex-2-en-1-one

> <PUBCHEM_IUPAC_INCHI>
InChI=1S/C9H14O/c1-7-4-8(10)6-9(2,3)5-7/h4H,5-6H2,1-3H3

> <PUBCHEM_IUPAC_INCHIKEY>
HJOVHMDZYOCNQW-UHFFFAOYSA-N

> <PUBCHEM_XLOGP3_AA>
1.6

> <PUBCHEM_EXACT_MASS>
138.104

> <PUBCHEM_MOLECULAR_FORMULA>
C9H14O

> <PUBCHEM_MOLECULAR_WEIGHT>
138.21

> <PUBCHEM_OPENEYE_CAN_SMILES>
CC1=CC(=O)CC(C1)(C)C

> <PUBCHEM_OPENEYE_ISO_SMILES>
CC1=CC(=O)CC(C1)(C)C

> <PUBCHEM_CACTVS_TPSA>
17.1

> <PUBCHEM_MONOISOTOPIC_WEIGHT>
138.104

> <PUBCHEM_TOTAL_CHARGE>
0

> <PUBCHEM_HEAVY_ATOM_COUNT>
10

> <PUBCHEM_ATOM_DEF_STEREO_COUNT>
0

> <PUBCHEM_ATOM_UDEF_STEREO_COUNT>
0

> <PUBCHEM_BOND_DEF_STEREO_COUNT>
0

> <PUBCHEM_BOND_UDEF_STEREO_COUNT>
0

> <PUBCHEM_ISOTOPIC_ATOM_COUNT>
0

> <PUBCHEM_COMPONENT_COUNT>
1

> <PUBCHEM_CACTVS_TAUTO_COUNT>
-1

> <PUBCHEM_COORDINATE_TYPE>
1
5
255

$$$$
159055
  -OEChem-02061913062D

 11 12  0     1  0  0  0  0  0999 V2000
    5.6137   -2.1590    0.0000 O   0  0  0  0  0  0  0  0  0  0  0  0
    3.2369    1.1644    0.0000 C   0  0  0  0  0  0  0  0  0  0  0  0
    3.7147   -0.7841    0.0000 C   0  0  1  0  0  0  0  0  0  0  0  0
    3.9735    0.1818    0.0000 C   0  0  2  0  0  0  0  0  0  0  0  0
    2.3420   -1.3761    0.0000 C   0  0  0  0  0  0  0  0  0  0  0  0
    2.0000   -0.4364    0.0000 C   0  0  0  0  0  0  0  0  0  0  0  0
    5.3725   -0.3270    0.0000 C   0  0  0  0  0  0  0  0  0  0  0  0
    5.1137   -1.2929    0.0000 C   0  0  0  0  0  0  0  0  0  0  0  0
    3.3415    2.1590    0.0000 C   0  0  0  0  0  0  0  0  0  0  0  0
    2.3234    1.5712    0.0000 C   0  0  0  0  0  0  0  0  0  0  0  0
    3.4559   -1.7500    0.0000 C   0  0  0  0  0  0  0  0  0  0  0  0
  1  8  2  0  0  0  0
  2  3  1  0  0  0  0
  2  4  1  0  0  0  0
  2  9  1  0  0  0  0
  2 10  1  0  0  0  0
  3  5  1  0  0  0  0
  3  8  1  0  0  0  0
  3 11  1  1  0  0  0
  4  6  1  0  0  0  0
  4  7  1  0  0  0  0
  5  6  1  0  0  0  0
  7  8  1  0  0  0  0
M  END
> <PUBCHEM_COMPOUND_CID>
159055

> <PUBCHEM_COMPOUND_CANONICALIZED>
1

> <PUBCHEM_CACTVS_COMPLEXITY>
217

> <PUBCHEM_CACTVS_HBOND_ACCEPTOR>
1

> <PUBCHEM_CACTVS_HBOND_DONOR>
0

> <PUBCHEM_CACTVS_ROTATABLE_BOND>
0

> <PUBCHEM_CACTVS_SUBSKEYS>
AAADceBwIAAAAAAAAAAAAAAAAAAAAYMAAAAwAAAAAAAAAAAAAAAAGgAAAAAADwSAgAACAAAAAAAIAIAQAAAAAAAAAAAAAAEAAAAAABIAAAAAAAAAAAAAAAEIiMCPgAAAAAAAAACAAAAAAAAAAQAACAAAAA==

> <PUBCHEM_IUPAC_OPENEYE_NAME>
(1~{R},4~{R})-1,7,7-trimethylnorbornan-2-one

> <PUBCHEM_IUPAC_CAS_NAME>
(1~{R},4~{R})-1,7,7-trimethyl-2-bicyclo[2.2.1]heptanone

> <PUBCHEM_IUPAC_NAME>
(1~{R},4~{R})-1,7,7-trimethylbicyclo[2.2.1]heptan-2-one

> <PUBCHEM_IUPAC_SYSTEMATIC_NAME>
(1~{R},4~{R})-1,7,7-trimethylbicyclo[2.2.1]heptan-2-one

> <PUBCHEM_IUPAC_TRADITIONAL_NAME>
(1~{R},4~{R})-1,7,7-trimethylnorbornan-2-one

> <PUBCHEM_IUPAC_INCHI>
InChI=1S/C10H16O/c1-9(2)7-4-5-10(9,3)8(11)6-7/h7H,4-6H2,1-3H3/t7-,10+/m1/s1

> <PUBCHEM_IUPAC_INCHIKEY>
DSSYKIVIOFKYAU-XCBNKYQSSA-N

> <PUBCHEM_XLOGP3_AA>
2.2

> <PUBCHEM_EXACT_MASS>
152.12

> <PUBCHEM_MOLECULAR_FORMULA>
C10H16O

> <PUBCHEM_MOLECULAR_WEIGHT>
152.237

> <PUBCHEM_OPENEYE_CAN_SMILES>
CC1(C2CCC1(C(=O)C2)C)C

> <PUBCHEM_OPENEYE_ISO_SMILES>
C[C@@]12CC[C@@H](C1(C)C)CC2=O

> <PUBCHEM_CACTVS_TPSA>
17.1

> <PUBCHEM_MONOISOTOPIC_WEIGHT>
152.12

> <PUBCHEM_TOTAL_CHARGE>
0

> <PUBCHEM_HEAVY_ATOM_COUNT>
11

> <PUBCHEM_ATOM_DEF_STEREO_COUNT>
2

> <PUBCHEM_ATOM_UDEF_STEREO_COUNT>
0

> <PUBCHEM_BOND_DEF_STEREO_COUNT>
0

> <PUBCHEM_BOND_UDEF_STEREO_COUNT>
0

> <PUBCHEM_ISOTOPIC_ATOM_COUNT>
0

> <PUBCHEM_COMPONENT_COUNT>
1

> <PUBCHEM_CACTVS_TAUTO_COUNT>
-1

> <PUBCHEM_COORDINATE_TYPE>
1
5
255

> <PUBCHEM_BONDANNOTATIONS>
3  11  5
4  12  6

$$$$
7500
  -OEChem-02061913072D

  8  8  0     0  0  0  0  0  0999 V2000
    2.8660    1.2500    0.0000 C   0  0  0  0  0  0  0  0  0  0  0  0
    2.8660    0.2500    0.0000 C   0  0  0  0  0  0  0  0  0  0  0  0
    2.0000   -0.2500    0.0000 C   0  0  0  0  0  0  0  0  0  0  0  0
    3.7320   -0.2500    0.0000 C   0  0  0  0  0  0  0  0  0  0  0  0
    3.7320    1.7500    0.0000 C   0  0  0  0  0  0  0  0  0  0  0  0
    2.0000   -1.2500    0.0000 C   0  0  0  0  0  0  0  0  0  0  0  0
    3.7320   -1.2500    0.0000 C   0  0  0  0  0  0  0  0  0  0  0  0
    2.8660   -1.7500    0.0000 C   0  0  0  0  0  0  0  0  0  0  0  0
  1  2  1  0  0  0  0
  1  5  1  0  0  0  0
  2  3  2  0  0  0  0
  2  4  1  0  0  0  0
  3  6  1  0  0  0  0
  4  7  2  0  0  0  0
  6  8  2  0  0  0  0
  7  8  1  0  0  0  0
M  END
> <PUBCHEM_COMPOUND_CID>
7500

> <PUBCHEM_COMPOUND_CANONICALIZED>
1

> <PUBCHEM_CACTVS_COMPLEXITY>
51.1

> <PUBCHEM_CACTVS_HBOND_ACCEPTOR>
0

> <PUBCHEM_CACTVS_HBOND_DONOR>
0

> <PUBCHEM_CACTVS_ROTATABLE_BOND>
1

> <PUBCHEM_CACTVS_SUBSKEYS>
AAADccBwAAAAAAAAAAAAAAAAAAAAAAAAAAAwAAAAAAAAAAABAAAAGAAAAAAADACAGAAyAIAAAACAAiBCAAACAAAgAAAIiAAAAIgIICKAERCAIAAggAAIiAcAgIAOAAAAAAAAAAAAAAAAAAAAAAAAAAAAAA==

> <PUBCHEM_IUPAC_OPENEYE_NAME>
ethylbenzene

> <PUBCHEM_IUPAC_CAS_NAME>
ethylbenzene

> <PUBCHEM_IUPAC_NAME>
ethylbenzene

> <PUBCHEM_IUPAC_SYSTEMATIC_NAME>
ethylbenzene

> <PUBCHEM_IUPAC_TRADITIONAL_NAME>
ethylbenzene

> <PUBCHEM_IUPAC_INCHI>
InChI=1S/C8H10/c1-2-8-6-4-3-5-7-8/h3-7H,2H2,1H3

> <PUBCHEM_IUPAC_INCHIKEY>
YNQLUTRBYVCPMQ-UHFFFAOYSA-N

> <PUBCHEM_XLOGP3>
3.1

> <PUBCHEM_EXACT_MASS>
106.078

> <PUBCHEM_MOLECULAR_FORMULA>
C8H10

> <PUBCHEM_MOLECULAR_WEIGHT>
106.168

> <PUBCHEM_OPENEYE_CAN_SMILES>
CCC1=CC=CC=C1

> <PUBCHEM_OPENEYE_ISO_SMILES>
CCC1=CC=CC=C1

> <PUBCHEM_CACTVS_TPSA>
0

> <PUBCHEM_MONOISOTOPIC_WEIGHT>
106.078

> <PUBCHEM_TOTAL_CHARGE>
0

> <PUBCHEM_HEAVY_ATOM_COUNT>
8

> <PUBCHEM_ATOM_DEF_STEREO_COUNT>
0

> <PUBCHEM_ATOM_UDEF_STEREO_COUNT>
0

> <PUBCHEM_BOND_DEF_STEREO_COUNT>
0

> <PUBCHEM_BOND_UDEF_STEREO_COUNT>
0

> <PUBCHEM_ISOTOPIC_ATOM_COUNT>
0

> <PUBCHEM_COMPONENT_COUNT>
1

> <PUBCHEM_CACTVS_TAUTO_COUNT>
-1

> <PUBCHEM_COORDINATE_TYPE>
1
5
255

> <PUBCHEM_BONDANNOTATIONS>
2  3  8
2  4  8
3  6  8
4  7  8
6  8  8
7  8  8

$$$$
1065
  -OEChem-02061913062D

 24 27  0     1  0  0  0  0  0999 V2000
    5.5320    0.3376    0.0000 O   0  0  0  0  0  0  0  0  0  0  0  0
    2.8680   -1.1382    0.0000 O   0  0  0  0  0  0  0  0  0  0  0  0
    7.7389    2.3435    0.0000 N   0  0  3  0  0  0  0  0  0  0  0  0
    6.3981   -3.1624    0.0000 N   0  0  0  0  0  0  0  0  0  0  0  0
    8.2389    1.4774    0.0000 C   0  0  3  0  0  0  0  0  0  0  0  0
    7.2641    0.3376    0.0000 C   0  0  3  0  0  0  0  0  0  0  0  0
    8.2300    0.0788    0.0000 C   0  0  0  0  0  0  0  0  0  0  0  0
    6.1726    1.5638    0.0000 C   0  0  3  0  0  0  0  0  0  0  0  0
    9.4585    2.3310    0.0000 C   0  0  0  0  0  0  0  0  0  0  0  0
    6.2598    2.5600    0.0000 C   0  0  0  0  0  0  0  0  0  0  0  0
    8.9585    3.1970    0.0000 C   0  0  0  0  0  0  0  0  0  0  0  0
    6.3981   -0.1624    0.0000 C   0  0  3  0  0  0  0  0  0  0  0  0
    5.1878    1.3902    0.0000 C   0  0  0  0  0  0  0  0  0  0  0  0
    6.3981   -1.1624    0.0000 C   0  0  0  0  0  0  0  0  0  0  0  0
    4.5450    2.1563    0.0000 C   0  0  0  0  0  0  0  0  0  0  0  0
    5.5320   -1.6624    0.0000 C   0  0  0  0  0  0  0  0  0  0  0  0
    7.2641   -1.6624    0.0000 C   0  0  0  0  0  0  0  0  0  0  0  0
    5.5320   -2.6624    0.0000 C   0  0  0  0  0  0  0  0  0  0  0  0
    4.6381   -1.1277    0.0000 C   0  0  0  0  0  0  0  0  0  0  0  0
    7.2641   -2.6624    0.0000 C   0  0  0  0  0  0  0  0  0  0  0  0
    4.6381   -3.1970    0.0000 C   0  0  0  0  0  0  0  0  0  0  0  0
    3.7320   -1.6415    0.0000 C   0  0  0  0  0  0  0  0  0  0  0  0
    3.7320   -2.6832    0.0000 C   0  0  0  0  0  0  0  0  0  0  0  0
    2.0000   -1.6349    0.0000 C   0  0  0  0  0  0  0  0  0  0  0  0
  1 12  1  0  0  0  0
  2 22  1  0  0  0  0
  2 24  1  0  0  0  0
  3  6  1  0  0  0  0
  3 10  1  0  0  0  0
  3 11  1  0  0  0  0
  4 18  2  0  0  0  0
  4 20  1  0  0  0  0
  5  7  1  0  0  0  0
  5  8  1  0  0  0  0
  5  9  1  0  0  0  0
  6  7  1  0  0  0  0
  6 12  1  0  0  0  0
  8 10  1  0  0  0  0
  8 13  1  0  0  0  0
  9 11  1  0  0  0  0
 12 14  1  0  0  0  0
 13 15  2  0  0  0  0
 14 16  2  0  0  0  0
 14 17  1  0  0  0  0
 16 18  1  0  0  0  0
 16 19  1  0  0  0  0
 17 20  2  0  0  0  0
 18 21  1  0  0  0  0
 19 22  2  0  0  0  0
 21 23  2  0  0  0  0
 22 23  1  0  0  0  0
M  END
> <PUBCHEM_COMPOUND_CID>
1065

> <PUBCHEM_COMPOUND_CANONICALIZED>
1

> <PUBCHEM_CACTVS_COMPLEXITY>
457

> <PUBCHEM_CACTVS_HBOND_ACCEPTOR>
4

> <PUBCHEM_CACTVS_HBOND_DONOR>
1

> <PUBCHEM_CACTVS_ROTATABLE_BOND>
4

> <PUBCHEM_CACTVS_SUBSKEYS>
AAADceB7MAAAAAAAAAAAAAAAAAAAAAAAAAA8WLFiAAAAAACx8AAAHgAACAAADTzhngY+xvMIFgCgAzRnRACCiCAxIiAI2CA+bJgONuLEsZuEcChkwBHY+Aew4PwOgEABAAACAAAAgAIAAAQAAAAAAAAAAA==

> <PUBCHEM_IUPAC_OPENEYE_NAME>
(6-methoxy-4-quinolyl)-(5-vinylquinuclidin-2-yl)methanol

> <PUBCHEM_IUPAC_CAS_NAME>
(5-ethenyl-1-azabicyclo[2.2.2]octan-2-yl)-(6-methoxy-4-quinolinyl)methanol

> <PUBCHEM_IUPAC_NAME>
(5-ethenyl-1-azabicyclo[2.2.2]octan-2-yl)-(6-methoxyquinolin-4-yl)methanol

> <PUBCHEM_IUPAC_SYSTEMATIC_NAME>
(5-ethenyl-1-azabicyclo[2.2.2]octan-2-yl)-(6-methoxyquinolin-4-yl)methanol

> <PUBCHEM_IUPAC_TRADITIONAL_NAME>
(6-methoxy-4-quinolyl)-(5-vinylquinuclidin-2-yl)methanol

> <PUBCHEM_IUPAC_INCHI>
InChI=1S/C20H24N2O2/c1-3-13-12-22-9-7-14(13)10-19(22)20(23)16-6-8-21-18-5-4-15(24-2)11-17(16)18/h3-6,8,11,13-14,19-20,23H,1,7,9-10,12H2,2H3

> <PUBCHEM_IUPAC_INCHIKEY>
LOUPRKONTZGTKE-UHFFFAOYSA-N

> <PUBCHEM_XLOGP3>
2.9

> <PUBCHEM_EXACT_MASS>
324.184

> <PUBCHEM_MOLECULAR_FORMULA>
C20H24N2O2

> <PUBCHEM_MOLECULAR_WEIGHT>
324.424

> <PUBCHEM_OPENEYE_CAN_SMILES>
COC1=CC2=C(C=CN=C2C=C1)C(C3CC4CCN3CC4C=C)O

> <PUBCHEM_OPENEYE_ISO_SMILES>
COC1=CC2=C(C=CN=C2C=C1)C(C3CC4CCN3CC4C=C)O

> <PUBCHEM_CACTVS_TPSA>
45.6

> <PUBCHEM_MONOISOTOPIC_WEIGHT>
324.184

> <PUBCHEM_TOTAL_CHARGE>
0

> <PUBCHEM_HEAVY_ATOM_COUNT>
24

> <PUBCHEM_ATOM_DEF_STEREO_COUNT>
0

> <PUBCHEM_ATOM_UDEF_STEREO_COUNT>
4

> <PUBCHEM_BOND_DEF_STEREO_COUNT>
0

> <PUBCHEM_BOND_UDEF_STEREO_COUNT>
0

> <PUBCHEM_ISOTOPIC_ATOM_COUNT>
0

> <PUBCHEM_COMPONENT_COUNT>
1

> <PUBCHEM_CACTVS_TAUTO_COUNT>
-1

> <PUBCHEM_COORDINATE_TYPE>
1
5
255

> <PUBCHEM_BONDANNOTATIONS>
12  36  3
14  16  8
14  17  8
16  18  8
16  19  8
17  20  8
18  21  8
19  22  8
21  23  8
22  23  8
4  18  8
4  20  8
5  9  3
6  7  3
8  13  3

$$$$
7407
  -OEChem-02061913072D

  9  9  0     0  0  0  0  0  0999 V2000
    2.8660    0.2500    0.0000 C   0  0  0  0  0  0  0  0  0  0  0  0
    2.8660    1.2500    0.0000 C   0  0  0  0  0  0  0  0  0  0  0  0
    2.0000   -0.2500    0.0000 C   0  0  0  0  0  0  0  0  0  0  0  0
    3.7320   -0.2500    0.0000 C   0  0  0  0  0  0  0  0  0  0  0  0
    2.0000   -1.2500    0.0000 C   0  0  0  0  0  0  0  0  0  0  0  0
    3.7320   -1.2500    0.0000 C   0  0  0  0  0  0  0  0  0  0  0  0
    3.7320    1.7500    0.0000 C   0  0  0  0  0  0  0  0  0  0  0  0
    2.8660   -1.7500    0.0000 C   0  0  0  0  0  0  0  0  0  0  0  0
    2.0000    1.7500    0.0000 C   0  0  0  0  0  0  0  0  0  0  0  0
  1  2  1  0  0  0  0
  1  3  2  0  0  0  0
  1  4  1  0  0  0  0
  2  7  1  0  0  0  0
  2  9  2  0  0  0  0
  3  5  1  0  0  0  0
  4  6  2  0  0  0  0
  5  8  2  0  0  0  0
  6  8  1  0  0  0  0
M  END
> <PUBCHEM_COMPOUND_CID>
7407

> <PUBCHEM_COMPOUND_CANONICALIZED>
1

> <PUBCHEM_CACTVS_COMPLEXITY>
96.6

> <PUBCHEM_CACTVS_HBOND_ACCEPTOR>
0

> <PUBCHEM_CACTVS_HBOND_DONOR>
0

> <PUBCHEM_CACTVS_ROTATABLE_BOND>
1

> <PUBCHEM_CACTVS_SUBSKEYS>
AAADccBwAAAAAAAAAAAAAAAAAAAAAAAAAAAwAAAAAAAAAAABAAAAGAAAAAAADACAGAAyAIAAAACAAiBCAAACAAAgAAAIiAAAAIgIICKAERCAIAAggAAIiAcAgIAOAAAAAAAAAAAAAAAAAAAAAAAAAAAAAA==

> <PUBCHEM_IUPAC_OPENEYE_NAME>
isopropenylbenzene

> <PUBCHEM_IUPAC_CAS_NAME>
1-methylethenylbenzene

> <PUBCHEM_IUPAC_NAME>
prop-1-en-2-ylbenzene

> <PUBCHEM_IUPAC_SYSTEMATIC_NAME>
prop-1-en-2-ylbenzene

> <PUBCHEM_IUPAC_TRADITIONAL_NAME>
isopropenylbenzene

> <PUBCHEM_IUPAC_INCHI>
InChI=1S/C9H10/c1-8(2)9-6-4-3-5-7-9/h3-7H,1H2,2H3

> <PUBCHEM_IUPAC_INCHIKEY>
XYLMUPLGERFSHI-UHFFFAOYSA-N

> <PUBCHEM_XLOGP3>
3.5

> <PUBCHEM_EXACT_MASS>
118.078

> <PUBCHEM_MOLECULAR_FORMULA>
C9H10

> <PUBCHEM_MOLECULAR_WEIGHT>
118.179

> <PUBCHEM_OPENEYE_CAN_SMILES>
CC(=C)C1=CC=CC=C1

> <PUBCHEM_OPENEYE_ISO_SMILES>
CC(=C)C1=CC=CC=C1

> <PUBCHEM_CACTVS_TPSA>
0

> <PUBCHEM_MONOISOTOPIC_WEIGHT>
118.078

> <PUBCHEM_TOTAL_CHARGE>
0

> <PUBCHEM_HEAVY_ATOM_COUNT>
9

> <PUBCHEM_ATOM_DEF_STEREO_COUNT>
0

> <PUBCHEM_ATOM_UDEF_STEREO_COUNT>
0

> <PUBCHEM_BOND_DEF_STEREO_COUNT>
0

> <PUBCHEM_BOND_UDEF_STEREO_COUNT>
0

> <PUBCHEM_ISOTOPIC_ATOM_COUNT>
0

> <PUBCHEM_COMPONENT_COUNT>
1

> <PUBCHEM_CACTVS_TAUTO_COUNT>
-1

> <PUBCHEM_COORDINATE_TYPE>
1
5
255

> <PUBCHEM_BONDANNOTATIONS>
1  3  8
1  4  8
3  5  8
4  6  8
5  8  8
6  8  8

$$$$
441207
  -OEChem-02061913092D

 54 61  0     1  0  0  0  0  0999 V2000
   18.3182   -1.3888    0.0000 O   0  0  0  0  0  0  0  0  0  0  0  0
   12.9292   -2.4619    0.0000 O   0  0  0  0  0  0  0  0  0  0  0  0
   19.5591    3.4894    0.0000 O   0  0  0  0  0  0  0  0  0  0  0  0
   12.0632   -0.9619    0.0000 O   0  0  0  0  0  0  0  0  0  0  0  0
   21.3186    3.7719    0.0000 O   0  0  0  0  0  0  0  0  0  0  0  0
    9.4651   -2.4619    0.0000 O   0  0  0  0  0  0  0  0  0  0  0  0
    9.4651   -0.4619    0.0000 O   0  0  0  0  0  0  0  0  0  0  0  0
    7.7331   -0.4619    0.0000 O   0  0  0  0  0  0  0  0  0  0  0  0
    6.0010   -2.4619    0.0000 O   0  0  0  0  0  0  0  0  0  0  0  0
    7.7331   -3.4619    0.0000 O   0  0  0  0  0  0  0  0  0  0  0  0
    4.2690   -2.4619    0.0000 O   0  0  0  0  0  0  0  0  0  0  0  0
    4.2690    0.5381    0.0000 O   0  0  0  0  0  0  0  0  0  0  0  0
    2.5369   -0.4619    0.0000 O   0  0  0  0  0  0  0  0  0  0  0  0
   18.3144   -0.3888    0.0000 C   0  0  1  0  0  0  0  0  0  0  0  0
   17.4503   -0.8921    0.0000 C   0  0  1  0  0  0  0  0  0  0  0  0
   16.5823   -0.3954    0.0000 C   0  0  1  0  0  0  0  0  0  0  0  0
   18.3105    0.6112    0.0000 C   0  0  2  0  0  0  0  0  0  0  0  0
   15.6743   -0.9058    0.0000 C   0  0  2  0  0  0  0  0  0  0  0  0
   15.6703   -1.9474    0.0000 C   0  0  2  0  0  0  0  0  0  0  0  0
   16.5785    0.6046    0.0000 C   0  0  0  0  0  0  0  0  0  0  0  0
   17.4426    1.1079    0.0000 C   0  0  0  0  0  0  0  0  0  0  0  0
   19.2556    0.9196    0.0000 C   0  0  2  0  0  0  0  0  0  0  0  0
   17.4704   -1.9335    0.0000 C   0  0  0  0  0  0  0  0  0  0  0  0
   19.2618   -0.6898    0.0000 C   0  0  0  0  0  0  0  0  0  0  0  0
   16.5744   -2.4647    0.0000 C   0  0  0  0  0  0  0  0  0  0  0  0
   19.8423    0.1171    0.0000 C   0  0  0  0  0  0  0  0  0  0  0  0
   14.7453   -0.3453    0.0000 C   0  0  0  0  0  0  0  0  0  0  0  0
   14.7370   -2.5007    0.0000 C   0  0  0  0  0  0  0  0  0  0  0  0
   18.3067    1.6112    0.0000 C   0  0  0  0  0  0  0  0  0  0  0  0
   15.6782    0.0942    0.0000 C   0  0  0  0  0  0  0  0  0  0  0  0
   13.7994   -0.8769    0.0000 C   0  0  0  0  0  0  0  0  0  0  0  0
   13.7953   -1.9619    0.0000 C   0  0  2  0  0  0  0  0  0  0  0  0
   19.5626    1.8713    0.0000 C   0  0  0  0  0  0  0  0  0  0  0  0
   18.9731    2.6791    0.0000 C   0  0  0  0  0  0  0  0  0  0  0  0
   20.5130    2.1824    0.0000 C   0  0  0  0  0  0  0  0  0  0  0  0
   12.0632   -1.9619    0.0000 C   0  0  2  0  0  0  0  0  0  0  0  0
   20.5108    3.1824    0.0000 C   0  0  0  0  0  0  0  0  0  0  0  0
   11.1972   -2.4619    0.0000 C   0  0  0  0  0  0  0  0  0  0  0  0
   10.3312   -1.9619    0.0000 C   0  0  1  0  0  0  0  0  0  0  0  0
   11.1972   -0.4619    0.0000 C   0  0  1  0  0  0  0  0  0  0  0  0
   10.3312   -0.9619    0.0000 C   0  0  1  0  0  0  0  0  0  0  0  0
   11.1972    0.5381    0.0000 C   0  0  0  0  0  0  0  0  0  0  0  0
    8.5991   -0.9619    0.0000 C   0  0  2  0  0  0  0  0  0  0  0  0
    8.5991   -1.9619    0.0000 C   0  0  0  0  0  0  0  0  0  0  0  0
    7.7331   -2.4619    0.0000 C   0  0  1  0  0  0  0  0  0  0  0  0
    6.8671   -0.9619    0.0000 C   0  0  1  0  0  0  0  0  0  0  0  0
    6.8671   -1.9619    0.0000 C   0  0  1  0  0  0  0  0  0  0  0  0
    6.0010   -0.4619    0.0000 C   0  0  0  0  0  0  0  0  0  0  0  0
    5.1350   -1.9619    0.0000 C   0  0  2  0  0  0  0  0  0  0  0  0
    5.1350   -0.9619    0.0000 C   0  0  0  0  0  0  0  0  0  0  0  0
    4.2690   -0.4619    0.0000 C   0  0  1  0  0  0  0  0  0  0  0  0
    3.4030   -1.9619    0.0000 C   0  0  1  0  0  0  0  0  0  0  0  0
    3.4030   -0.9619    0.0000 C   0  0  1  0  0  0  0  0  0  0  0  0
    2.5369   -2.4619    0.0000 C   0  0  0  0  0  0  0  0  0  0  0  0
 14  1  1  1  0  0  0
 32  2  1  1  0  0  0
 36  2  1  1  0  0  0
  3 34  1  0  0  0  0
  3 37  1  0  0  0  0
  4 36  1  0  0  0  0
  4 40  1  0  0  0  0
  5 37  2  0  0  0  0
 39  6  1  6  0  0  0
 41  7  1  6  0  0  0
 43  7  1  1  0  0  0
  8 43  1  0  0  0  0
  8 46  1  0  0  0  0
 47  9  1  6  0  0  0
 49  9  1  6  0  0  0
 45 10  1  6  0  0  0
 11 49  1  0  0  0  0
 11 52  1  0  0  0  0
 51 12  1  1  0  0  0
 53 13  1  1  0  0  0
 14 15  1  0  0  0  0
 14 17  1  0  0  0  0
 14 24  1  0  0  0  0
 15 16  1  0  0  0  0
 15 23  1  0  0  0  0
 16 18  1  0  0  0  0
 16 20  1  0  0  0  0
 17 21  1  0  0  0  0
 17 22  1  0  0  0  0
 17 29  1  1  0  0  0
 18 19  1  0  0  0  0
 18 27  1  0  0  0  0
 18 30  1  1  0  0  0
 19 25  1  0  0  0  0
 19 28  1  0  0  0  0
 20 21  1  0  0  0  0
 22 26  1  0  0  0  0
 22 33  1  1  0  0  0
 23 25  1  0  0  0  0
 24 26  1  0  0  0  0
 27 31  1  0  0  0  0
 28 32  1  0  0  0  0
 31 32  1  0  0  0  0
 33 34  1  0  0  0  0
 33 35  2  0  0  0  0
 35 37  1  0  0  0  0
 36 38  1  0  0  0  0
 38 39  1  0  0  0  0
 39 41  1  0  0  0  0
 40 41  1  0  0  0  0
 40 42  1  1  0  0  0
 43 44  1  0  0  0  0
 44 45  1  0  0  0  0
 45 47  1  0  0  0  0
 46 47  1  0  0  0  0
 46 48  1  1  0  0  0
 49 50  1  0  0  0  0
 50 51  1  0  0  0  0
 51 53  1  0  0  0  0
 52 53  1  0  0  0  0
 52 54  1  6  0  0  0
M  END
> <PUBCHEM_COMPOUND_CID>
441207

> <PUBCHEM_COMPOUND_CANONICALIZED>
1

> <PUBCHEM_CACTVS_COMPLEXITY>
1410

> <PUBCHEM_CACTVS_HBOND_ACCEPTOR>
13

> <PUBCHEM_CACTVS_HBOND_DONOR>
5

> <PUBCHEM_CACTVS_ROTATABLE_BOND>
7

> <PUBCHEM_CACTVS_SUBSKEYS>
AAADcfB8PAAAAAAAAAAAAAAAAAAAAYIAAAA0aNECAAAAAGDAAAAAGgAACAAAD1SwgAMCCAAABgCIAiDSCAAAAAAgAAAACAAAAEgRFAIAIQAiUAAFgAAPIQPA4PwPgAAAAAAAAADAAAYAADAAAYAADAAAAA==

> <PUBCHEM_IUPAC_OPENEYE_NAME>
3-[(3~{S},5~{R},8~{R},9~{S},10~{S},13~{R},14~{S},17~{R})-3-[(2~{R},4~{S},5~{S},6~{R})-5-[(2~{S},4~{S},5~{S},6~{R})-5-[(2~{S},4~{S},5~{S},6~{R})-4,5-dihydroxy-6-methyl-tetrahydropyran-2-yl]oxy-4-hydroxy-6-methyl-tetrahydropyran-2-yl]oxy-4-hydroxy-6-methyl-tetrahydropyran-2-yl]oxy-14-hydroxy-10,13-dimethyl-1,2,3,4,5,6,7,8,9,11,12,15,16,17-tetradecahydrocyclopenta[a]phenanthren-17-yl]-2~{H}-furan-5-one

> <PUBCHEM_IUPAC_CAS_NAME>
3-[(3~{S},5~{R},8~{R},9~{S},10~{S},13~{R},14~{S},17~{R})-3-[[(2~{R},4~{S},5~{S},6~{R})-5-[[(2~{S},4~{S},5~{S},6~{R})-5-[[(2~{S},4~{S},5~{S},6~{R})-4,5-dihydroxy-6-methyl-2-oxanyl]oxy]-4-hydroxy-6-methyl-2-oxanyl]oxy]-4-hydroxy-6-methyl-2-oxanyl]oxy]-14-hydroxy-10,13-dimethyl-1,2,3,4,5,6,7,8,9,11,12,15,16,17-tetradecahydrocyclopenta[a]phenanthren-17-yl]-2~{H}-furan-5-one

> <PUBCHEM_IUPAC_NAME>
3-[(3~{S},5~{R},8~{R},9~{S},10~{S},13~{R},14~{S},17~{R})-3-[(2~{R},4~{S},5~{S},6~{R})-5-[(2~{S},4~{S},5~{S},6~{R})-5-[(2~{S},4~{S},5~{S},6~{R})-4,5-dihydroxy-6-methyloxan-2-yl]oxy-4-hydroxy-6-methyloxan-2-yl]oxy-4-hydroxy-6-methyloxan-2-yl]oxy-14-hydroxy-10,13-dimethyl-1,2,3,4,5,6,7,8,9,11,12,15,16,17-tetradecahydrocyclopenta[a]phenanthren-17-yl]-2~{H}-furan-5-one

> <PUBCHEM_IUPAC_SYSTEMATIC_NAME>
3-[(3~{S},5~{R},8~{R},9~{S},10~{S},13~{R},14~{S},17~{R})-10,13-dimethyl-3-[(2~{R},4~{S},5~{S},6~{R})-6-methyl-5-[(2~{S},4~{S},5~{S},6~{R})-6-methyl-5-[(2~{S},4~{S},5~{S},6~{R})-6-methyl-4,5-bis(oxidanyl)oxan-2-yl]oxy-4-oxidanyl-oxan-2-yl]oxy-4-oxidanyl-oxan-2-yl]oxy-14-oxidanyl-1,2,3,4,5,6,7,8,9,11,12,15,16,17-tetradecahydrocyclopenta[a]phenanthren-17-yl]-2~{H}-furan-5-one

> <PUBCHEM_IUPAC_TRADITIONAL_NAME>
3-[(3~{S},5~{R},8~{R},9~{S},10~{S},13~{R},14~{S},17~{R})-3-[(2~{R},4~{S},5~{S},6~{R})-5-[(2~{S},4~{S},5~{S},6~{R})-5-[(2~{S},4~{S},5~{S},6~{R})-4,5-dihydroxy-6-methyl-tetrahydropyran-2-yl]oxy-4-hydroxy-6-methyl-tetrahydropyran-2-yl]oxy-4-hydroxy-6-methyl-tetrahydropyran-2-yl]oxy-14-hydroxy-10,13-dimethyl-1,2,3,4,5,6,7,8,9,11,12,15,16,17-tetradecahydrocyclopenta[a]phenanthren-17-yl]-2~{H}-furan-5-one

> <PUBCHEM_IUPAC_INCHI>
InChI=1S/C41H64O13/c1-20-36(46)29(42)16-34(49-20)53-38-22(3)51-35(18-31(38)44)54-37-21(2)50-33(17-30(37)43)52-25-8-11-39(4)24(15-25)6-7-28-27(39)9-12-40(5)26(10-13-41(28,40)47)23-14-32(45)48-19-23/h14,20-22,24-31,33-38,42-44,46-47H,6-13,15-19H2,1-5H3/t20-,21-,22-,24-,25+,26-,27+,28-,29+,30+,31+,33+,34+,35+,36-,37-,38-,39+,40-,41+/m1/s1

> <PUBCHEM_IUPAC_INCHIKEY>
WDJUZGPOPHTGOT-XUDUSOBPSA-N

> <PUBCHEM_XLOGP3>
2.3

> <PUBCHEM_EXACT_MASS>
764.435

> <PUBCHEM_MOLECULAR_FORMULA>
C41H64O13

> <PUBCHEM_MOLECULAR_WEIGHT>
764.95

> <PUBCHEM_OPENEYE_CAN_SMILES>
CC1C(C(CC(O1)OC2C(OC(CC2O)OC3C(OC(CC3O)OC4CCC5(C(C4)CCC6C5CCC7(C6(CCC7C8=CC(=O)OC8)O)C)C)C)C)O)O

> <PUBCHEM_OPENEYE_ISO_SMILES>
C[C@@H]1[C@H]([C@H](C[C@@H](O1)O[C@@H]2[C@H](O[C@H](C[C@@H]2O)O[C@@H]3[C@H](O[C@H](C[C@@H]3O)O[C@H]4CC[C@]5([C@@H](C4)CC[C@@H]6[C@@H]5CC[C@]7([C@@]6(CC[C@@H]7C8=CC(=O)OC8)O)C)C)C)C)O)O

> <PUBCHEM_CACTVS_TPSA>
183

> <PUBCHEM_MONOISOTOPIC_WEIGHT>
764.435

> <PUBCHEM_TOTAL_CHARGE>
0

> <PUBCHEM_HEAVY_ATOM_COUNT>
54

> <PUBCHEM_ATOM_DEF_STEREO_COUNT>
20

> <PUBCHEM_ATOM_UDEF_STEREO_COUNT>
0

> <PUBCHEM_BOND_DEF_STEREO_COUNT>
0

> <PUBCHEM_BOND_UDEF_STEREO_COUNT>
0

> <PUBCHEM_ISOTOPIC_ATOM_COUNT>
0

> <PUBCHEM_COMPONENT_COUNT>
1

> <PUBCHEM_CACTVS_TAUTO_COUNT>
-1

> <PUBCHEM_COORDINATE_TYPE>
1
5
255

> <PUBCHEM_BONDANNOTATIONS>
14  1  5
45  10  6
51  12  5
53  13  5
15  55  5
16  56  6
17  29  5
18  30  5
19  57  5
32  2  5
36  2  5
22  33  5
40  42  5
46  48  5
52  54  6
39  6  6
41  7  6
43  7  5
47  9  6
49  9  6

$$$$
6492
  -OEChem-02061913062D

 10 12  0     1  0  0  0  0  0999 V2000
    3.6086   -0.9653    0.0000 C   0  0  3  0  0  0  0  0  0  0  0  0
    3.2666   -0.0256    0.0000 C   0  0  3  0  0  0  0  0  0  0  0  0
    4.9813   -0.3733    0.0000 C   0  0  3  0  0  0  0  0  0  0  0  0
    5.2401    0.5927    0.0000 C   0  0  3  0  0  0  0  0  0  0  0  0
    4.5035    1.5753    0.0000 C   0  0  0  0  0  0  0  0  0  0  0  0
    2.8237   -1.5753    0.0000 C   0  0  0  0  0  0  0  0  0  0  0  0
    6.3802   -0.8821    0.0000 C   0  0  0  0  0  0  0  0  0  0  0  0
    6.6390    0.0838    0.0000 C   0  0  0  0  0  0  0  0  0  0  0  0
    2.2732   -0.0629    0.0000 C   0  0  0  0  0  0  0  0  0  0  0  0
    2.0000   -1.0187    0.0000 C   0  0  0  0  0  0  0  0  0  0  0  0
  1  2  1  0  0  0  0
  1  3  1  0  0  0  0
  1  6  1  0  0  0  0
  2  4  1  0  0  0  0
  2  9  1  0  0  0  0
  3  5  1  0  0  0  0
  3  7  1  0  0  0  0
  4  5  1  0  0  0  0
  4  8  1  0  0  0  0
  6 10  1  0  0  0  0
  7  8  2  0  0  0  0
  9 10  2  0  0  0  0
M  END
> <PUBCHEM_COMPOUND_CID>
6492

> <PUBCHEM_COMPOUND_CANONICALIZED>
1

> <PUBCHEM_CACTVS_COMPLEXITY>
212

> <PUBCHEM_CACTVS_HBOND_ACCEPTOR>
0

> <PUBCHEM_CACTVS_HBOND_DONOR>
0

> <PUBCHEM_CACTVS_ROTATABLE_BOND>
0

> <PUBCHEM_CACTVS_SUBSKEYS>
AAADccBwAAAAAAAAAAAAAAAAAAAAAYIEAAAgAAAAAAAQAAAAAAAAGAAAAAAADQCAAAAAAAAAAACAACBCAAAAAAAgAAAICAAAAAgAAAIAAQAAAAAAgAAIAAMAgMAOgAAAAAAAAAAAAAAAAAAAAQAACAAAAA==

> <PUBCHEM_IUPAC_OPENEYE_NAME>
tricyclo[5.2.1.0^{2,6}]deca-3,8-diene

> <PUBCHEM_IUPAC_CAS_NAME>
tricyclo[5.2.1.0^{2,6}]deca-3,8-diene

> <PUBCHEM_IUPAC_NAME>
tricyclo[5.2.1.0^{2,6}]deca-3,8-diene

> <PUBCHEM_IUPAC_SYSTEMATIC_NAME>
tricyclo[5.2.1.0^{2,6}]deca-3,8-diene

> <PUBCHEM_IUPAC_TRADITIONAL_NAME>
tricyclo[5.2.1.0^{2,6}]deca-3,8-diene

> <PUBCHEM_IUPAC_INCHI>
InChI=1S/C10H12/c1-2-9-7-4-5-8(6-7)10(9)3-1/h1-2,4-5,7-10H,3,6H2

> <PUBCHEM_IUPAC_INCHIKEY>
HECLRDQVFMWTQS-UHFFFAOYSA-N

> <PUBCHEM_XLOGP3_AA>
2.5

> <PUBCHEM_EXACT_MASS>
132.094

> <PUBCHEM_MOLECULAR_FORMULA>
C10H12

> <PUBCHEM_MOLECULAR_WEIGHT>
132.206

> <PUBCHEM_OPENEYE_CAN_SMILES>
C1C=CC2C1C3CC2C=C3

> <PUBCHEM_OPENEYE_ISO_SMILES>
C1C=CC2C1C3CC2C=C3

> <PUBCHEM_CACTVS_TPSA>
0

> <PUBCHEM_MONOISOTOPIC_WEIGHT>
132.094

> <PUBCHEM_TOTAL_CHARGE>
0

> <PUBCHEM_HEAVY_ATOM_COUNT>
10

> <PUBCHEM_ATOM_DEF_STEREO_COUNT>
0

> <PUBCHEM_ATOM_UDEF_STEREO_COUNT>
4

> <PUBCHEM_BOND_DEF_STEREO_COUNT>
0

> <PUBCHEM_BOND_UDEF_STEREO_COUNT>
0

> <PUBCHEM_ISOTOPIC_ATOM_COUNT>
0

> <PUBCHEM_COMPONENT_COUNT>
1

> <PUBCHEM_CACTVS_TAUTO_COUNT>
-1

> <PUBCHEM_COORDINATE_TYPE>
1
5
255

> <PUBCHEM_BONDANNOTATIONS>
1  6  3
2  9  3
3  7  3
4  8  3

$$$$
6641
  -OEChem-02061913062D

 20 21  0     0  0  0  0  0  0999 V2000
    3.0000   -0.2500    0.0000 O   0  0  0  0  0  0  0  0  0  0  0  0
    3.8660    0.2500    0.0000 O   0  0  0  0  0  0  0  0  0  0  0  0
    3.0000   -1.2500    0.0000 C   0  0  0  0  0  0  0  0  0  0  0  0
    3.8660    1.2500    0.0000 C   0  0  0  0  0  0  0  0  0  0  0  0
    3.0000   -2.2500    0.0000 C   0  0  0  0  0  0  0  0  0  0  0  0
    3.8660    2.2500    0.0000 C   0  0  0  0  0  0  0  0  0  0  0  0
    4.8660    1.2500    0.0000 C   0  0  0  0  0  0  0  0  0  0  0  0
    4.0000   -1.2500    0.0000 C   0  0  0  0  0  0  0  0  0  0  0  0
    2.0000   -1.2500    0.0000 C   0  0  0  0  0  0  0  0  0  0  0  0
    2.8660    1.2500    0.0000 C   0  0  0  0  0  0  0  0  0  0  0  0
    3.8660   -2.7500    0.0000 C   0  0  0  0  0  0  0  0  0  0  0  0
    3.0000    2.7500    0.0000 C   0  0  0  0  0  0  0  0  0  0  0  0
    2.1340   -2.7500    0.0000 C   0  0  0  0  0  0  0  0  0  0  0  0
    4.7320    2.7500    0.0000 C   0  0  0  0  0  0  0  0  0  0  0  0
    3.8660   -3.7500    0.0000 C   0  0  0  0  0  0  0  0  0  0  0  0
    3.0000    3.7500    0.0000 C   0  0  0  0  0  0  0  0  0  0  0  0
    2.1340   -3.7500    0.0000 C   0  0  0  0  0  0  0  0  0  0  0  0
    4.7320    3.7500    0.0000 C   0  0  0  0  0  0  0  0  0  0  0  0
    3.0000   -4.2500    0.0000 C   0  0  0  0  0  0  0  0  0  0  0  0
    3.8660    4.2500    0.0000 C   0  0  0  0  0  0  0  0  0  0  0  0
  1  2  1  0  0  0  0
  1  3  1  0  0  0  0
  2  4  1  0  0  0  0
  3  5  1  0  0  0  0
  3  8  1  0  0  0  0
  3  9  1  0  0  0  0
  4  6  1  0  0  0  0
  4  7  1  0  0  0  0
  4 10  1  0  0  0  0
  5 11  2  0  0  0  0
  5 13  1  0  0  0  0
  6 12  2  0  0  0  0
  6 14  1  0  0  0  0
 11 15  1  0  0  0  0
 12 16  1  0  0  0  0
 13 17  2  0  0  0  0
 14 18  2  0  0  0  0
 15 19  2  0  0  0  0
 16 20  2  0  0  0  0
 17 19  1  0  0  0  0
 18 20  1  0  0  0  0
M  END
> <PUBCHEM_COMPOUND_CID>
6641

> <PUBCHEM_COMPOUND_CANONICALIZED>
1

> <PUBCHEM_CACTVS_COMPLEXITY>
254

> <PUBCHEM_CACTVS_HBOND_ACCEPTOR>
2

> <PUBCHEM_CACTVS_HBOND_DONOR>
0

> <PUBCHEM_CACTVS_ROTATABLE_BOND>
5

> <PUBCHEM_CACTVS_SUBSKEYS>
AAADceB4MAAAAAAAAAAAAAAAAAAAAAAAAAAwYAAAAAAAAAABQAAAGgAABAAADESAmAAyAIAAAACAAiBCAAACAAAgAAAIiAAACIgIJiKAERCAMAAkwAEIiAeAwOAOgAAAAAAAAAAAAAAAAAAAAAAAAAAAAA==

> <PUBCHEM_IUPAC_OPENEYE_NAME>
[1-methyl-1-(1-methyl-1-phenyl-ethyl)peroxy-ethyl]benzene

> <PUBCHEM_IUPAC_CAS_NAME>
2-(2-phenylpropan-2-yldioxy)propan-2-ylbenzene

> <PUBCHEM_IUPAC_NAME>
2-(2-phenylpropan-2-ylperoxy)propan-2-ylbenzene

> <PUBCHEM_IUPAC_SYSTEMATIC_NAME>
2-(2-phenylpropan-2-ylperoxy)propan-2-ylbenzene

> <PUBCHEM_IUPAC_TRADITIONAL_NAME>
(1-cumylperoxy-1-methyl-ethyl)benzene

> <PUBCHEM_IUPAC_INCHI>
InChI=1S/C18H22O2/c1-17(2,15-11-7-5-8-12-15)19-20-18(3,4)16-13-9-6-10-14-16/h5-14H,1-4H3

> <PUBCHEM_IUPAC_INCHIKEY>
XMNIXWIUMCBBBL-UHFFFAOYSA-N

> <PUBCHEM_XLOGP3_AA>
4.3

> <PUBCHEM_EXACT_MASS>
270.162

> <PUBCHEM_MOLECULAR_FORMULA>
C18H22O2

> <PUBCHEM_MOLECULAR_WEIGHT>
270.372

> <PUBCHEM_OPENEYE_CAN_SMILES>
CC(C)(C1=CC=CC=C1)OOC(C)(C)C2=CC=CC=C2

> <PUBCHEM_OPENEYE_ISO_SMILES>
CC(C)(C1=CC=CC=C1)OOC(C)(C)C2=CC=CC=C2

> <PUBCHEM_CACTVS_TPSA>
18.5

> <PUBCHEM_MONOISOTOPIC_WEIGHT>
270.162

> <PUBCHEM_TOTAL_CHARGE>
0

> <PUBCHEM_HEAVY_ATOM_COUNT>
20

> <PUBCHEM_ATOM_DEF_STEREO_COUNT>
0

> <PUBCHEM_ATOM_UDEF_STEREO_COUNT>
0

> <PUBCHEM_BOND_DEF_STEREO_COUNT>
0

> <PUBCHEM_BOND_UDEF_STEREO_COUNT>
0

> <PUBCHEM_ISOTOPIC_ATOM_COUNT>
0

> <PUBCHEM_COMPONENT_COUNT>
1

> <PUBCHEM_CACTVS_TAUTO_COUNT>
-1

> <PUBCHEM_COORDINATE_TYPE>
1
5
255

> <PUBCHEM_BONDANNOTATIONS>
11  15  8
12  16  8
13  17  8
14  18  8
15  19  8
16  20  8
17  19  8
18  20  8
5  11  8
5  13  8
6  12  8
6  14  8

$$$$
12242824
  -OEChem-02061913512D

 11 12  0     1  0  0  0  0  0999 V2000
    2.6176   -2.1937    0.0000 O   0  0  0  0  0  0  0  0  0  0  0  0
    4.4130   -0.6953    0.0000 C   0  0  2  0  0  0  0  0  0  0  0  0
    3.9352    1.2532    0.0000 C   0  0  0  0  0  0  0  0  0  0  0  0
    4.6718    0.2706    0.0000 C   0  0  2  0  0  0  0  0  0  0  0  0
    3.0403   -1.2874    0.0000 C   0  0  3  0  0  0  0  0  0  0  0  0
    5.8119   -1.2042    0.0000 C   0  0  0  0  0  0  0  0  0  0  0  0
    2.6982   -0.3477    0.0000 C   0  0  0  0  0  0  0  0  0  0  0  0
    6.0707   -0.2382    0.0000 C   0  0  0  0  0  0  0  0  0  0  0  0
    4.1541   -1.6613    0.0000 C   0  0  0  0  0  0  0  0  0  0  0  0
    4.0397    2.2477    0.0000 C   0  0  0  0  0  0  0  0  0  0  0  0
    3.0216    1.6599    0.0000 C   0  0  0  0  0  0  0  0  0  0  0  0
  1  5  1  0  0  0  0
  2  3  1  0  0  0  0
  2  5  1  0  0  0  0
  2  6  1  0  0  0  0
  2  9  1  6  0  0  0
  3  4  1  0  0  0  0
  3 10  1  0  0  0  0
  3 11  1  0  0  0  0
  4  7  1  0  0  0  0
  4  8  1  0  0  0  0
  5  7  1  0  0  0  0
  6  8  1  0  0  0  0
M  END
> <PUBCHEM_COMPOUND_CID>
12242824

> <PUBCHEM_COMPOUND_CANONICALIZED>
1

> <PUBCHEM_CACTVS_COMPLEXITY>
185

> <PUBCHEM_CACTVS_HBOND_ACCEPTOR>
1

> <PUBCHEM_CACTVS_HBOND_DONOR>
1

> <PUBCHEM_CACTVS_ROTATABLE_BOND>
0

> <PUBCHEM_CACTVS_SUBSKEYS>
AAADceBwIAAAAAAAAAAAAAAAAAAAAYMAAAAwAAAAAAAAAAAAAAAAGgAACAAADxSggAICAAAAAgAAAAAAAAAAAAAAAAAAAAAAAAAAEAIAAAAAQAAEAAAAAAGAwPAPgAAAAAAAAACAAAIAABAAAYAADAAAAA==

> <PUBCHEM_IUPAC_OPENEYE_NAME>
(1~{R},4~{S})-1,7,7-trimethylnorbornan-2-ol

> <PUBCHEM_IUPAC_CAS_NAME>
(1~{R},4~{S})-1,7,7-trimethyl-2-bicyclo[2.2.1]heptanol

> <PUBCHEM_IUPAC_NAME>
(1~{R},4~{S})-1,7,7-trimethylbicyclo[2.2.1]heptan-2-ol

> <PUBCHEM_IUPAC_SYSTEMATIC_NAME>
(1~{R},4~{S})-1,7,7-trimethylbicyclo[2.2.1]heptan-2-ol

> <PUBCHEM_IUPAC_TRADITIONAL_NAME>
(1~{R},4~{S})-1,7,7-trimethylnorbornan-2-ol

> <PUBCHEM_IUPAC_INCHI>
InChI=1S/C10H18O/c1-9(2)7-4-5-10(9,3)8(11)6-7/h7-8,11H,4-6H2,1-3H3/t7-,8?,10-/m0/s1

> <PUBCHEM_IUPAC_INCHIKEY>
DTGKSKDOIYIVQL-OFQRNFBNSA-N

> <PUBCHEM_XLOGP3>
2.7

> <PUBCHEM_EXACT_MASS>
154.136

> <PUBCHEM_MOLECULAR_FORMULA>
C10H18O

> <PUBCHEM_MOLECULAR_WEIGHT>
154.253

> <PUBCHEM_OPENEYE_CAN_SMILES>
CC1(C2CCC1(C(C2)O)C)C

> <PUBCHEM_OPENEYE_ISO_SMILES>
C[C@@]12CC[C@H](C1(C)C)CC2O

> <PUBCHEM_CACTVS_TPSA>
20.2

> <PUBCHEM_MONOISOTOPIC_WEIGHT>
154.136

> <PUBCHEM_TOTAL_CHARGE>
0

> <PUBCHEM_HEAVY_ATOM_COUNT>
11

> <PUBCHEM_ATOM_DEF_STEREO_COUNT>
2

> <PUBCHEM_ATOM_UDEF_STEREO_COUNT>
1

> <PUBCHEM_BOND_DEF_STEREO_COUNT>
0

> <PUBCHEM_BOND_UDEF_STEREO_COUNT>
0

> <PUBCHEM_ISOTOPIC_ATOM_COUNT>
0

> <PUBCHEM_COMPONENT_COUNT>
1

> <PUBCHEM_CACTVS_TAUTO_COUNT>
-1

> <PUBCHEM_COORDINATE_TYPE>
1
5
255

> <PUBCHEM_BONDANNOTATIONS>
2  9  6
4  12  6
5  13  3

$$$$
6616
  -OEChem-02061913062D

 10 11  0     1  0  0  0  0  0999 V2000
    3.7147   -0.2226    0.0000 C   0  0  3  0  0  0  0  0  0  0  0  0
    5.1137   -0.7314    0.0000 C   0  0  0  0  0  0  0  0  0  0  0  0
    3.9735    0.7433    0.0000 C   0  0  3  0  0  0  0  0  0  0  0  0
    3.2369    1.7259    0.0000 C   0  0  0  0  0  0  0  0  0  0  0  0
    2.3420   -0.8146    0.0000 C   0  0  0  0  0  0  0  0  0  0  0  0
    2.0000    0.1251    0.0000 C   0  0  0  0  0  0  0  0  0  0  0  0
    5.3725    0.2345    0.0000 C   0  0  0  0  0  0  0  0  0  0  0  0
    6.0272   -1.1382    0.0000 C   0  0  0  0  0  0  0  0  0  0  0  0
    5.0091   -1.7259    0.0000 C   0  0  0  0  0  0  0  0  0  0  0  0
    6.2385    0.7345    0.0000 C   0  0  0  0  0  0  0  0  0  0  0  0
  1  2  1  0  0  0  0
  1  4  1  0  0  0  0
  1  5  1  0  0  0  0
  2  7  1  0  0  0  0
  2  8  1  0  0  0  0
  2  9  1  0  0  0  0
  3  4  1  0  0  0  0
  3  6  1  0  0  0  0
  3  7  1  0  0  0  0
  5  6  1  0  0  0  0
  7 10  2  0  0  0  0
M  END
> <PUBCHEM_COMPOUND_CID>
6616

> <PUBCHEM_COMPOUND_CANONICALIZED>
1

> <PUBCHEM_CACTVS_COMPLEXITY>
177

> <PUBCHEM_CACTVS_HBOND_ACCEPTOR>
0

> <PUBCHEM_CACTVS_HBOND_DONOR>
0

> <PUBCHEM_CACTVS_ROTATABLE_BOND>
0

> <PUBCHEM_CACTVS_SUBSKEYS>
AAADceBwAAAAAAAAAAAAAAAAAAAAAYMAAAAwAAAAAAAAAAAAAAAAGAAAAAAADwCAAAACAAAAAACAAgBCAAAAAAAgAAAAAAAAAAgAAAIAAQAAAAAAgAAAAAEAgMAPgAAAAAAAAAAAAAQAACAAAQAACAAAAA==

> <PUBCHEM_IUPAC_OPENEYE_NAME>
2,2-dimethyl-3-methylene-norbornane

> <PUBCHEM_IUPAC_CAS_NAME>
2,2-dimethyl-3-methylenebicyclo[2.2.1]heptane

> <PUBCHEM_IUPAC_NAME>
2,2-dimethyl-3-methylidenebicyclo[2.2.1]heptane

> <PUBCHEM_IUPAC_SYSTEMATIC_NAME>
2,2-dimethyl-3-methylidene-bicyclo[2.2.1]heptane

> <PUBCHEM_IUPAC_TRADITIONAL_NAME>
2,2-dimethyl-3-methylene-norbornane

> <PUBCHEM_IUPAC_INCHI>
InChI=1S/C10H16/c1-7-8-4-5-9(6-8)10(7,2)3/h8-9H,1,4-6H2,2-3H3

> <PUBCHEM_IUPAC_INCHIKEY>
CRPUJAZIXJMDBK-UHFFFAOYSA-N

> <PUBCHEM_XLOGP3_AA>
3.3

> <PUBCHEM_EXACT_MASS>
136.125

> <PUBCHEM_MOLECULAR_FORMULA>
C10H16

> <PUBCHEM_MOLECULAR_WEIGHT>
136.238

> <PUBCHEM_OPENEYE_CAN_SMILES>
CC1(C2CCC(C2)C1=C)C

> <PUBCHEM_OPENEYE_ISO_SMILES>
CC1(C2CCC(C2)C1=C)C

> <PUBCHEM_CACTVS_TPSA>
0

> <PUBCHEM_MONOISOTOPIC_WEIGHT>
136.125

> <PUBCHEM_TOTAL_CHARGE>
0

> <PUBCHEM_HEAVY_ATOM_COUNT>
10

> <PUBCHEM_ATOM_DEF_STEREO_COUNT>
0

> <PUBCHEM_ATOM_UDEF_STEREO_COUNT>
2

> <PUBCHEM_BOND_DEF_STEREO_COUNT>
0

> <PUBCHEM_BOND_UDEF_STEREO_COUNT>
0

> <PUBCHEM_ISOTOPIC_ATOM_COUNT>
0

> <PUBCHEM_COMPONENT_COUNT>
1

> <PUBCHEM_CACTVS_TAUTO_COUNT>
-1

> <PUBCHEM_COORDINATE_TYPE>
1
5
255

> <PUBCHEM_BONDANNOTATIONS>
1  2  3
3  7  3

$$$$
5054
  -OEChem-02061913062D

  8  8  0     0  0  0  0  0  0999 V2000
    3.7320    1.6550    0.0000 O   0  0  0  0  0  0  0  0  0  0  0  0
    2.0000   -1.3450    0.0000 O   0  0  0  0  0  0  0  0  0  0  0  0
    3.7320    0.6550    0.0000 C   0  0  0  0  0  0  0  0  0  0  0  0
    2.8660   -0.8450    0.0000 C   0  0  0  0  0  0  0  0  0  0  0  0
    2.8660    0.1550    0.0000 C   0  0  0  0  0  0  0  0  0  0  0  0
    4.5981    0.1550    0.0000 C   0  0  0  0  0  0  0  0  0  0  0  0
    3.7320   -1.3450    0.0000 C   0  0  0  0  0  0  0  0  0  0  0  0
    4.5981   -0.8450    0.0000 C   0  0  0  0  0  0  0  0  0  0  0  0
  1  3  1  0  0  0  0
  2  4  1  0  0  0  0
  3  5  2  0  0  0  0
  3  6  1  0  0  0  0
  4  5  1  0  0  0  0
  4  7  2  0  0  0  0
  6  8  2  0  0  0  0
  7  8  1  0  0  0  0
M  END
> <PUBCHEM_COMPOUND_CID>
5054

> <PUBCHEM_COMPOUND_CANONICALIZED>
1

> <PUBCHEM_CACTVS_COMPLEXITY>
64.9

> <PUBCHEM_CACTVS_HBOND_ACCEPTOR>
2

> <PUBCHEM_CACTVS_HBOND_DONOR>
2

> <PUBCHEM_CACTVS_ROTATABLE_BOND>
0

> <PUBCHEM_CACTVS_SUBSKEYS>
AAADcYBgMAAAAAAAAAAAAAAAAAAAAAAAAAAwAAAAAAAAAAABAAAAGgAACAAACASAkAAwBoAAAgCAACBCAAACAAAgIAAIiAAGCIgIJyKCERKAcAAlwBUImAeAYAQAAAAACAAAAAAAAAAQAAAAAAAAAAAAAA==

> <PUBCHEM_IUPAC_OPENEYE_NAME>
benzene-1,3-diol

> <PUBCHEM_IUPAC_CAS_NAME>
benzene-1,3-diol

> <PUBCHEM_IUPAC_NAME>
benzene-1,3-diol

> <PUBCHEM_IUPAC_SYSTEMATIC_NAME>
benzene-1,3-diol

> <PUBCHEM_IUPAC_TRADITIONAL_NAME>
resorcinol

> <PUBCHEM_IUPAC_INCHI>
InChI=1S/C6H6O2/c7-5-2-1-3-6(8)4-5/h1-4,7-8H

> <PUBCHEM_IUPAC_INCHIKEY>
GHMLBKRAJCXXBS-UHFFFAOYSA-N

> <PUBCHEM_XLOGP3>
0.8

> <PUBCHEM_EXACT_MASS>
110.037

> <PUBCHEM_MOLECULAR_FORMULA>
C6H6O2

> <PUBCHEM_MOLECULAR_WEIGHT>
110.112

> <PUBCHEM_OPENEYE_CAN_SMILES>
C1=CC(=CC(=C1)O)O

> <PUBCHEM_OPENEYE_ISO_SMILES>
C1=CC(=CC(=C1)O)O

> <PUBCHEM_CACTVS_TPSA>
40.5

> <PUBCHEM_MONOISOTOPIC_WEIGHT>
110.037

> <PUBCHEM_TOTAL_CHARGE>
0

> <PUBCHEM_HEAVY_ATOM_COUNT>
8

> <PUBCHEM_ATOM_DEF_STEREO_COUNT>
0

> <PUBCHEM_ATOM_UDEF_STEREO_COUNT>
0

> <PUBCHEM_BOND_DEF_STEREO_COUNT>
0

> <PUBCHEM_BOND_UDEF_STEREO_COUNT>
0

> <PUBCHEM_ISOTOPIC_ATOM_COUNT>
0

> <PUBCHEM_COMPONENT_COUNT>
1

> <PUBCHEM_CACTVS_TAUTO_COUNT>
-1

> <PUBCHEM_COORDINATE_TYPE>
1
5
255

> <PUBCHEM_BONDANNOTATIONS>
3  5  8
3  6  8
4  5  8
4  7  8
6  8  8
7  8  8

$$$$
2345
  -OEChem-02061913062D

 16 17  0     0  0  0  0  0  0999 V2000
    3.7320    0.2500    0.0000 O   0  0  0  0  0  0  0  0  0  0  0  0
    2.0000    0.2500    0.0000 O   0  0  0  0  0  0  0  0  0  0  0  0
    4.5981    1.7500    0.0000 C   0  0  0  0  0  0  0  0  0  0  0  0
    3.7320    1.2500    0.0000 C   0  0  0  0  0  0  0  0  0  0  0  0
    2.8660   -1.2500    0.0000 C   0  0  0  0  0  0  0  0  0  0  0  0
    5.4641    1.2500    0.0000 C   0  0  0  0  0  0  0  0  0  0  0  0
    4.5981    2.7500    0.0000 C   0  0  0  0  0  0  0  0  0  0  0  0
    2.8660   -0.2500    0.0000 C   0  0  0  0  0  0  0  0  0  0  0  0
    6.3301    1.7500    0.0000 C   0  0  0  0  0  0  0  0  0  0  0  0
    5.4641    3.2500    0.0000 C   0  0  0  0  0  0  0  0  0  0  0  0
    2.0000   -1.7500    0.0000 C   0  0  0  0  0  0  0  0  0  0  0  0
    3.7320   -1.7500    0.0000 C   0  0  0  0  0  0  0  0  0  0  0  0
    6.3301    2.7500    0.0000 C   0  0  0  0  0  0  0  0  0  0  0  0
    2.0000   -2.7500    0.0000 C   0  0  0  0  0  0  0  0  0  0  0  0
    3.7320   -2.7500    0.0000 C   0  0  0  0  0  0  0  0  0  0  0  0
    2.8660   -3.2500    0.0000 C   0  0  0  0  0  0  0  0  0  0  0  0
  1  4  1  0  0  0  0
  1  8  1  0  0  0  0
  2  8  2  0  0  0  0
  3  4  1  0  0  0  0
  3  6  2  0  0  0  0
  3  7  1  0  0  0  0
  5  8  1  0  0  0  0
  5 11  2  0  0  0  0
  5 12  1  0  0  0  0
  6  9  1  0  0  0  0
  7 10  2  0  0  0  0
  9 13  2  0  0  0  0
 10 13  1  0  0  0  0
 11 14  1  0  0  0  0
 12 15  2  0  0  0  0
 14 16  2  0  0  0  0
 15 16  1  0  0  0  0
M  END
> <PUBCHEM_COMPOUND_CID>
2345

> <PUBCHEM_COMPOUND_CANONICALIZED>
1

> <PUBCHEM_CACTVS_COMPLEXITY>
213

> <PUBCHEM_CACTVS_HBOND_ACCEPTOR>
2

> <PUBCHEM_CACTVS_HBOND_DONOR>
0

> <PUBCHEM_CACTVS_ROTATABLE_BOND>
4

> <PUBCHEM_CACTVS_SUBSKEYS>
AAADccBwMAAAAAAAAAAAAAAAAAAAAAAAAAAwYAAAAAAAAAABQAAAGgAAAAAADACgmAIwCIAABACIAiDSCAACAAAkAAAIiAEACMgIJjKANRiCMQAkwAEIqYeIyCCOAAAAAAAAAAAAAAAAAAAAAAAAAAAAAA==

> <PUBCHEM_IUPAC_OPENEYE_NAME>
benzyl benzoate

> <PUBCHEM_IUPAC_CAS_NAME>
benzoic acid (phenylmethyl) ester

> <PUBCHEM_IUPAC_NAME>
benzyl benzoate

> <PUBCHEM_IUPAC_SYSTEMATIC_NAME>
(phenylmethyl) benzoate

> <PUBCHEM_IUPAC_TRADITIONAL_NAME>
benzoic acid benzyl ester

> <PUBCHEM_IUPAC_INCHI>
InChI=1S/C14H12O2/c15-14(13-9-5-2-6-10-13)16-11-12-7-3-1-4-8-12/h1-10H,11H2

> <PUBCHEM_IUPAC_INCHIKEY>
SESFRYSPDFLNCH-UHFFFAOYSA-N

> <PUBCHEM_XLOGP3>
4

> <PUBCHEM_EXACT_MASS>
212.084

> <PUBCHEM_MOLECULAR_FORMULA>
C14H12O2

> <PUBCHEM_MOLECULAR_WEIGHT>
212.248

> <PUBCHEM_OPENEYE_CAN_SMILES>
C1=CC=C(C=C1)COC(=O)C2=CC=CC=C2

> <PUBCHEM_OPENEYE_ISO_SMILES>
C1=CC=C(C=C1)COC(=O)C2=CC=CC=C2

> <PUBCHEM_CACTVS_TPSA>
26.3

> <PUBCHEM_MONOISOTOPIC_WEIGHT>
212.084

> <PUBCHEM_TOTAL_CHARGE>
0

> <PUBCHEM_HEAVY_ATOM_COUNT>
16

> <PUBCHEM_ATOM_DEF_STEREO_COUNT>
0

> <PUBCHEM_ATOM_UDEF_STEREO_COUNT>
0

> <PUBCHEM_BOND_DEF_STEREO_COUNT>
0

> <PUBCHEM_BOND_UDEF_STEREO_COUNT>
0

> <PUBCHEM_ISOTOPIC_ATOM_COUNT>
0

> <PUBCHEM_COMPONENT_COUNT>
1

> <PUBCHEM_CACTVS_TAUTO_COUNT>
-1

> <PUBCHEM_COORDINATE_TYPE>
1
5
255

> <PUBCHEM_BONDANNOTATIONS>
10  13  8
11  14  8
12  15  8
14  16  8
15  16  8
3  6  8
3  7  8
5  11  8
5  12  8
6  9  8
7  10  8
9  13  8

$$$$
16043
  -OEChem-02061913072D

 12 12  0     0  0  0  0  0  0999 V2000
    2.5369    0.3100    0.0000 O   0  0  0  0  0  0  0  0  0  0  0  0
    6.0010   -1.6900    0.0000 O   0  0  0  0  0  0  0  0  0  0  0  0
    4.2690    1.3100    0.0000 C   0  0  0  0  0  0  0  0  0  0  0  0
    4.2690    0.3100    0.0000 C   0  0  0  0  0  0  0  0  0  0  0  0
    4.2690    2.3100    0.0000 C   0  0  0  0  0  0  0  0  0  0  0  0
    5.2690    1.3100    0.0000 C   0  0  0  0  0  0  0  0  0  0  0  0
    3.2690    1.3100    0.0000 C   0  0  0  0  0  0  0  0  0  0  0  0
    3.4030   -0.1900    0.0000 C   0  0  0  0  0  0  0  0  0  0  0  0
    5.1350   -0.1900    0.0000 C   0  0  0  0  0  0  0  0  0  0  0  0
    5.1350   -1.1900    0.0000 C   0  0  0  0  0  0  0  0  0  0  0  0
    3.4030   -1.1900    0.0000 C   0  0  0  0  0  0  0  0  0  0  0  0
    4.2690   -1.6900    0.0000 C   0  0  0  0  0  0  0  0  0  0  0  0
  1  8  1  0  0  0  0
  2 10  1  0  0  0  0
  3  4  1  0  0  0  0
  3  5  1  0  0  0  0
  3  6  1  0  0  0  0
  3  7  1  0  0  0  0
  4  8  2  0  0  0  0
  4  9  1  0  0  0  0
  8 11  1  0  0  0  0
  9 10  2  0  0  0  0
 10 12  1  0  0  0  0
 11 12  2  0  0  0  0
M  END
> <PUBCHEM_COMPOUND_CID>
16043

> <PUBCHEM_COMPOUND_CANONICALIZED>
1

> <PUBCHEM_CACTVS_COMPLEXITY>
148

> <PUBCHEM_CACTVS_HBOND_ACCEPTOR>
2

> <PUBCHEM_CACTVS_HBOND_DONOR>
2

> <PUBCHEM_CACTVS_ROTATABLE_BOND>
1

> <PUBCHEM_CACTVS_SUBSKEYS>
AAADccBwMAAAAAAAAAAAAAAAAAAAAAAAAAAwAAAAAAAAAAABAAAAGgAACAAADgSAmAAyBoAAAgCAAiBCAAACAAAgIAAIiAAGCIgIJiKCERKAcAAkwBEImAfAwPAPgQABAAAIAAACAAIAABAAAAAAAAAAAA==

> <PUBCHEM_IUPAC_OPENEYE_NAME>
2-~{tert}-butylbenzene-1,4-diol

> <PUBCHEM_IUPAC_CAS_NAME>
2-~{tert}-butylbenzene-1,4-diol

> <PUBCHEM_IUPAC_NAME>
2-~{tert}-butylbenzene-1,4-diol

> <PUBCHEM_IUPAC_SYSTEMATIC_NAME>
2-~{tert}-butylbenzene-1,4-diol

> <PUBCHEM_IUPAC_TRADITIONAL_NAME>
2-~{tert}-butylhydroquinone

> <PUBCHEM_IUPAC_INCHI>
InChI=1S/C10H14O2/c1-10(2,3)8-6-7(11)4-5-9(8)12/h4-6,11-12H,1-3H3

> <PUBCHEM_IUPAC_INCHIKEY>
BGNXCDMCOKJUMV-UHFFFAOYSA-N

> <PUBCHEM_XLOGP3>
2.8

> <PUBCHEM_EXACT_MASS>
166.099

> <PUBCHEM_MOLECULAR_FORMULA>
C10H14O2

> <PUBCHEM_MOLECULAR_WEIGHT>
166.22

> <PUBCHEM_OPENEYE_CAN_SMILES>
CC(C)(C)C1=C(C=CC(=C1)O)O

> <PUBCHEM_OPENEYE_ISO_SMILES>
CC(C)(C)C1=C(C=CC(=C1)O)O

> <PUBCHEM_CACTVS_TPSA>
40.5

> <PUBCHEM_MONOISOTOPIC_WEIGHT>
166.099

> <PUBCHEM_TOTAL_CHARGE>
0

> <PUBCHEM_HEAVY_ATOM_COUNT>
12

> <PUBCHEM_ATOM_DEF_STEREO_COUNT>
0

> <PUBCHEM_ATOM_UDEF_STEREO_COUNT>
0

> <PUBCHEM_BOND_DEF_STEREO_COUNT>
0

> <PUBCHEM_BOND_UDEF_STEREO_COUNT>
0

> <PUBCHEM_ISOTOPIC_ATOM_COUNT>
0

> <PUBCHEM_COMPONENT_COUNT>
1

> <PUBCHEM_CACTVS_TAUTO_COUNT>
-1

> <PUBCHEM_COORDINATE_TYPE>
1
5
255

> <PUBCHEM_BONDANNOTATIONS>
10  12  8
11  12  8
4  8  8
4  9  8
8  11  8
9  10  8

$$$$
12456033
  -OEChem-02061913512D

  9 10  0     1  0  0  0  0  0999 V2000
    5.0503    0.9948    0.0000 C   0  0  2  0  0  0  0  0  0  0  0  0
    4.7915    0.0288    0.0000 C   0  0  1  0  0  0  0  0  0  0  0  0
    4.3137    1.9774    0.0000 C   0  0  0  0  0  0  0  0  0  0  0  0
    3.0768    0.3765    0.0000 C   0  0  0  0  0  0  0  0  0  0  0  0
    3.4188   -0.5632    0.0000 C   0  0  0  0  0  0  0  0  0  0  0  0
    6.4493    0.4859    0.0000 C   0  0  0  0  0  0  0  0  0  0  0  0
    6.1905   -0.4800    0.0000 C   0  0  0  0  0  0  0  0  0  0  0  0
    2.9962   -1.4695    0.0000 C   0  0  0  0  0  0  0  0  0  0  0  0
    2.0000   -1.5566    0.0000 C   0  0  0  0  0  0  0  0  0  0  0  0
  1  3  1  0  0  0  0
  1  4  1  0  0  0  0
  1  6  1  0  0  0  0
  2  3  1  0  0  0  0
  2  5  1  0  0  0  0
  2  7  1  0  0  0  0
  4  5  1  0  0  0  0
  5  8  2  0  0  0  0
  6  7  2  0  0  0  0
  8  9  1  0  0  0  0
M  END
> <PUBCHEM_COMPOUND_CID>
12456033

> <PUBCHEM_COMPOUND_CANONICALIZED>
1

> <PUBCHEM_CACTVS_COMPLEXITY>
175

> <PUBCHEM_CACTVS_HBOND_ACCEPTOR>
0

> <PUBCHEM_CACTVS_HBOND_DONOR>
0

> <PUBCHEM_CACTVS_ROTATABLE_BOND>
0

> <PUBCHEM_CACTVS_SUBSKEYS>
AAADccBwAAAAAAAAAAAAAAAAAAAAAYIAAAAgAAAAAAAAAAAAAAAAGAAAAAAADQCAAAACAAAAAACAAiBCAAAAAAAgAAAICAAAAAgAAAIAAQAAAAAAgAAIAAMAAAAOAAAAAAAAAAAAAAAAAAAAAQAAAAAAAA==

> <PUBCHEM_IUPAC_OPENEYE_NAME>
(1~{R},4~{R},5~{E})-5-ethylidenebicyclo[2.2.1]hept-2-ene

> <PUBCHEM_IUPAC_CAS_NAME>
(1~{R},4~{R},5~{E})-5-ethylidenebicyclo[2.2.1]hept-2-ene

> <PUBCHEM_IUPAC_NAME>
(1~{R},4~{R},5~{E})-5-ethylidenebicyclo[2.2.1]hept-2-ene

> <PUBCHEM_IUPAC_SYSTEMATIC_NAME>
(1~{R},4~{R},5~{E})-5-ethylidenebicyclo[2.2.1]hept-2-ene

> <PUBCHEM_IUPAC_TRADITIONAL_NAME>
(1~{R},4~{R},5~{E})-5-ethylidenebicyclo[2.2.1]hept-2-ene

> <PUBCHEM_IUPAC_INCHI>
InChI=1S/C9H12/c1-2-8-5-7-3-4-9(8)6-7/h2-4,7,9H,5-6H2,1H3/b8-2+/t7-,9-/m0/s1

> <PUBCHEM_IUPAC_INCHIKEY>
OJOWICOBYCXEKR-WHZSQGQPSA-N

> <PUBCHEM_XLOGP3_AA>
2.2

> <PUBCHEM_EXACT_MASS>
120.094

> <PUBCHEM_MOLECULAR_FORMULA>
C9H12

> <PUBCHEM_MOLECULAR_WEIGHT>
120.195

> <PUBCHEM_OPENEYE_CAN_SMILES>
CC=C1CC2CC1C=C2

> <PUBCHEM_OPENEYE_ISO_SMILES>
C/C=C/1\C[C@H]2C[C@@H]1C=C2

> <PUBCHEM_CACTVS_TPSA>
0

> <PUBCHEM_MONOISOTOPIC_WEIGHT>
120.094

> <PUBCHEM_TOTAL_CHARGE>
0

> <PUBCHEM_HEAVY_ATOM_COUNT>
9

> <PUBCHEM_ATOM_DEF_STEREO_COUNT>
2

> <PUBCHEM_ATOM_UDEF_STEREO_COUNT>
0

> <PUBCHEM_BOND_DEF_STEREO_COUNT>
1

> <PUBCHEM_BOND_UDEF_STEREO_COUNT>
0

> <PUBCHEM_ISOTOPIC_ATOM_COUNT>
0

> <PUBCHEM_COMPONENT_COUNT>
1

> <PUBCHEM_CACTVS_TAUTO_COUNT>
-1

> <PUBCHEM_COORDINATE_TYPE>
1
5
255

> <PUBCHEM_BONDANNOTATIONS>
1  10  6
2  11  5

$$$$
6540731
  -OEChem-02061913372D

 29 31  0     1  0  0  0  0  0999 V2000
    2.0000   -4.8465    0.0000 O   0  0  0  0  0  0  0  0  0  0  0  0
    5.4641    1.1535    0.0000 C   0  0  2  0  0  0  0  0  0  0  0  0
    6.4103    1.4582    0.0000 C   0  0  2  0  0  0  0  0  0  0  0  0
    5.4641    0.1535    0.0000 C   0  0  1  0  0  0  0  0  0  0  0  0
    6.9939    0.6535    0.0000 C   0  0  0  0  0  0  0  0  0  0  0  0
    6.4103   -0.1512    0.0000 C   0  0  0  0  0  0  0  0  0  0  0  0
    4.5981    1.6535    0.0000 C   0  0  0  0  0  0  0  0  0  0  0  0
    6.7210    2.4087    0.0000 C   0  0  2  0  0  0  0  0  0  0  0  0
    4.5981   -0.3465    0.0000 C   0  0  0  0  0  0  0  0  0  0  0  0
    5.4641    2.1535    0.0000 C   0  0  0  0  0  0  0  0  0  0  0  0
    3.7320    1.1535    0.0000 C   0  0  0  0  0  0  0  0  0  0  0  0
    3.7320    0.1535    0.0000 C   0  0  0  0  0  0  0  0  0  0  0  0
    6.0531    3.1530    0.0000 C   0  0  0  0  0  0  0  0  0  0  0  0
    7.6995    2.6150    0.0000 C   0  0  0  0  0  0  0  0  0  0  0  0
    4.5981   -1.3465    0.0000 C   0  0  0  0  0  0  0  0  0  0  0  0
    8.0102    3.5655    0.0000 C   0  0  0  0  0  0  0  0  0  0  0  0
    3.7320   -1.8465    0.0000 C   0  0  0  0  0  0  0  0  0  0  0  0
    8.9887    3.7717    0.0000 C   0  0  1  0  0  0  0  0  0  0  0  0
    3.7320   -2.8465    0.0000 C   0  0  0  0  0  0  0  0  0  0  0  0
    9.2993    4.7222    0.0000 C   0  0  0  0  0  0  0  0  0  0  0  0
    2.8660   -3.3465    0.0000 C   0  0  0  0  0  0  0  0  0  0  0  0
    9.6565    3.0274    0.0000 C   0  0  0  0  0  0  0  0  0  0  0  0
    4.5981   -3.3465    0.0000 C   0  0  0  0  0  0  0  0  0  0  0  0
    2.8660   -4.3465    0.0000 C   0  0  1  0  0  0  0  0  0  0  0  0
    4.5981   -4.3465    0.0000 C   0  0  0  0  0  0  0  0  0  0  0  0
    3.7320   -4.8465    0.0000 C   0  0  0  0  0  0  0  0  0  0  0  0
   10.2778    4.9284    0.0000 C   0  0  0  0  0  0  0  0  0  0  0  0
    8.6315    5.4665    0.0000 C   0  0  0  0  0  0  0  0  0  0  0  0
    5.4641   -2.8465    0.0000 C   0  0  0  0  0  0  0  0  0  0  0  0
 24  1  1  1  0  0  0
  2  3  1  0  0  0  0
  2  4  1  0  0  0  0
  2  7  1  0  0  0  0
  2 10  1  1  0  0  0
  3  5  1  0  0  0  0
  3  8  1  0  0  0  0
  4  6  1  0  0  0  0
  4  9  1  0  0  0  0
  5  6  1  0  0  0  0
  7 11  1  0  0  0  0
  8 13  1  6  0  0  0
  8 14  1  0  0  0  0
  9 12  1  0  0  0  0
  9 15  2  0  0  0  0
 11 12  1  0  0  0  0
 14 16  2  0  0  0  0
 15 17  1  0  0  0  0
 16 18  1  0  0  0  0
 17 19  2  0  0  0  0
 18 20  1  0  0  0  0
 18 22  1  1  0  0  0
 19 21  1  0  0  0  0
 19 23  1  0  0  0  0
 20 27  1  0  0  0  0
 20 28  1  0  0  0  0
 21 24  1  0  0  0  0
 23 25  1  0  0  0  0
 23 29  2  0  0  0  0
 24 26  1  0  0  0  0
 25 26  1  0  0  0  0
M  END
> <PUBCHEM_COMPOUND_CID>
6540731

> <PUBCHEM_COMPOUND_CANONICALIZED>
1

> <PUBCHEM_CACTVS_COMPLEXITY>
678

> <PUBCHEM_CACTVS_HBOND_ACCEPTOR>
1

> <PUBCHEM_CACTVS_HBOND_DONOR>
1

> <PUBCHEM_CACTVS_ROTATABLE_BOND>
5

> <PUBCHEM_CACTVS_SUBSKEYS>
AAADcfB4IAAAAAAAAAAAAAAAAAAAAYAAAAAwYAAAAAAAAGAAAAAAGgAACAAADxSggAICAAAAAgCAAiBCAAAAAAAgAAAICAAAAAgIEAIAAQAAQAAEwAAIgAOAwMAPgAAAAAAAAAAAAAAAACAAAQAACAAAAA==

> <PUBCHEM_IUPAC_OPENEYE_NAME>
(1~{R},3~{Z})-3-[(2~{E})-2-[(1~{R},3~{a}~{S},7~{a}~{R})-7~{a}-methyl-1-[(~{E},1~{R},4~{R})-1,4,5-trimethylhex-2-enyl]-2,3,3~{a},5,6,7-hexahydro-1~{H}-inden-4-ylidene]ethylidene]-4-methylene-cyclohexanol

> <PUBCHEM_IUPAC_CAS_NAME>
(1~{R},3~{Z})-3-[(2~{E})-2-[(1~{R},3~{a}~{S},7~{a}~{R})-1-[(~{E},2~{R},5~{R})-5,6-dimethylhept-3-en-2-yl]-7~{a}-methyl-2,3,3~{a},5,6,7-hexahydro-1~{H}-inden-4-ylidene]ethylidene]-4-methylene-1-cyclohexanol

> <PUBCHEM_IUPAC_NAME>
(1~{R},3~{Z})-3-[(2~{E})-2-[(1~{R},3~{a}~{S},7~{a}~{R})-1-[(~{E},2~{R},5~{R})-5,6-dimethylhept-3-en-2-yl]-7~{a}-methyl-2,3,3~{a},5,6,7-hexahydro-1~{H}-inden-4-ylidene]ethylidene]-4-methylidenecyclohexan-1-ol

> <PUBCHEM_IUPAC_SYSTEMATIC_NAME>
(1~{R},3~{Z})-3-[(2~{E})-2-[(1~{R},3~{a}~{S},7~{a}~{R})-1-[(~{E},2~{R},5~{R})-5,6-dimethylhept-3-en-2-yl]-7~{a}-methyl-2,3,3~{a},5,6,7-hexahydro-1~{H}-inden-4-ylidene]ethylidene]-4-methylidene-cyclohexan-1-ol

> <PUBCHEM_IUPAC_TRADITIONAL_NAME>
(1~{R},3~{Z})-3-[(2~{E})-2-[(1~{R},3~{a}~{S},7~{a}~{R})-7~{a}-methyl-1-[(~{E},1~{R},4~{R})-1,4,5-trimethylhex-2-enyl]-2,3,3~{a},5,6,7-hexahydro-1~{H}-inden-4-ylidene]ethylidene]-4-methylene-cyclohexanol

> <PUBCHEM_IUPAC_INCHI>
InChI=1S/C28H44O/c1-19(2)20(3)9-10-22(5)26-15-16-27-23(8-7-17-28(26,27)6)12-13-24-18-25(29)14-11-21(24)4/h9-10,12-13,19-20,22,25-27,29H,4,7-8,11,14-18H2,1-3,5-6H3/b10-9+,23-12+,24-13-/t20-,22+,25+,26+,27-,28+/m0/s1

> <PUBCHEM_IUPAC_INCHIKEY>
MECHNRXZTMCUDQ-PNXBIAHGSA-N

> <PUBCHEM_XLOGP3_AA>
7.4

> <PUBCHEM_EXACT_MASS>
396.339

> <PUBCHEM_MOLECULAR_FORMULA>
C28H44O

> <PUBCHEM_MOLECULAR_WEIGHT>
396.659

> <PUBCHEM_OPENEYE_CAN_SMILES>
CC(C)C(C)C=CC(C)C1CCC2C1(CCCC2=CC=C3CC(CCC3=C)O)C

> <PUBCHEM_OPENEYE_ISO_SMILES>
C[C@H](/C=C/[C@H](C)C(C)C)[C@H]1CC[C@@H]\2[C@@]1(CCC/C2=C\C=C/3\C[C@@H](CCC3=C)O)C

> <PUBCHEM_CACTVS_TPSA>
20.2

> <PUBCHEM_MONOISOTOPIC_WEIGHT>
396.339

> <PUBCHEM_TOTAL_CHARGE>
0

> <PUBCHEM_HEAVY_ATOM_COUNT>
29

> <PUBCHEM_ATOM_DEF_STEREO_COUNT>
6

> <PUBCHEM_ATOM_UDEF_STEREO_COUNT>
0

> <PUBCHEM_BOND_DEF_STEREO_COUNT>
3

> <PUBCHEM_BOND_UDEF_STEREO_COUNT>
0

> <PUBCHEM_ISOTOPIC_ATOM_COUNT>
0

> <PUBCHEM_COMPONENT_COUNT>
1

> <PUBCHEM_CACTVS_TAUTO_COUNT>
-1

> <PUBCHEM_COORDINATE_TYPE>
1
5
255

> <PUBCHEM_BONDANNOTATIONS>
24  1  5
18  22  5
2  10  5
3  30  6
4  31  6
8  13  6

$$$$
7923
  -OEChem-02061913072D

  7  7  0     0  0  0  0  0  0999 V2000
    3.7601   -0.7694    0.0000 O   0  0  0  0  0  0  0  0  0  0  0  0
    5.5202   -0.4907    0.0000 O   0  0  0  0  0  0  0  0  0  0  0  0
    2.0000   -0.4907    0.0000 O   0  0  0  0  0  0  0  0  0  0  0  0
    4.2601    0.7694    0.0000 C   0  0  0  0  0  0  0  0  0  0  0  0
    3.2601    0.7694    0.0000 C   0  0  0  0  0  0  0  0  0  0  0  0
    4.5691   -0.1816    0.0000 C   0  0  0  0  0  0  0  0  0  0  0  0
    2.9511   -0.1816    0.0000 C   0  0  0  0  0  0  0  0  0  0  0  0
  1  6  1  0  0  0  0
  1  7  1  0  0  0  0
  2  6  2  0  0  0  0
  3  7  2  0  0  0  0
  4  5  2  0  0  0  0
  4  6  1  0  0  0  0
  5  7  1  0  0  0  0
M  END
> <PUBCHEM_COMPOUND_CID>
7923

> <PUBCHEM_COMPOUND_CANONICALIZED>
1

> <PUBCHEM_CACTVS_COMPLEXITY>
129

> <PUBCHEM_CACTVS_HBOND_ACCEPTOR>
3

> <PUBCHEM_CACTVS_HBOND_DONOR>
0

> <PUBCHEM_CACTVS_ROTATABLE_BOND>
0

> <PUBCHEM_CACTVS_SUBSKEYS>
AAADcQBgMAAAAAAAAAAAAAAAAAAAAQAAAAAAAAAAAAAAAAAAAAAAGgAAAAAACACAgAAACAAABACIACDSCAAAAAAAAAAICAAAAEAABAAAIAACEAAAAAAAIYAAAAAAAAAAAAAAAAAAAAAAAAAAAAAAAAAAAA==

> <PUBCHEM_IUPAC_OPENEYE_NAME>
furan-2,5-dione

> <PUBCHEM_IUPAC_CAS_NAME>
furan-2,5-dione

> <PUBCHEM_IUPAC_NAME>
furan-2,5-dione

> <PUBCHEM_IUPAC_SYSTEMATIC_NAME>
furan-2,5-dione

> <PUBCHEM_IUPAC_TRADITIONAL_NAME>
furan-2,5-quinone

> <PUBCHEM_IUPAC_INCHI>
InChI=1S/C4H2O3/c5-3-1-2-4(6)7-3/h1-2H

> <PUBCHEM_IUPAC_INCHIKEY>
FPYJFEHAWHCUMM-UHFFFAOYSA-N

> <PUBCHEM_XLOGP3_AA>
-0.1

> <PUBCHEM_EXACT_MASS>
98

> <PUBCHEM_MOLECULAR_FORMULA>
C4H2O3

> <PUBCHEM_MOLECULAR_WEIGHT>
98.057

> <PUBCHEM_OPENEYE_CAN_SMILES>
C1=CC(=O)OC1=O

> <PUBCHEM_OPENEYE_ISO_SMILES>
C1=CC(=O)OC1=O

> <PUBCHEM_CACTVS_TPSA>
43.4

> <PUBCHEM_MONOISOTOPIC_WEIGHT>
98

> <PUBCHEM_TOTAL_CHARGE>
0

> <PUBCHEM_HEAVY_ATOM_COUNT>
7

> <PUBCHEM_ATOM_DEF_STEREO_COUNT>
0

> <PUBCHEM_ATOM_UDEF_STEREO_COUNT>
0

> <PUBCHEM_BOND_DEF_STEREO_COUNT>
0

> <PUBCHEM_BOND_UDEF_STEREO_COUNT>
0

> <PUBCHEM_ISOTOPIC_ATOM_COUNT>
0

> <PUBCHEM_COMPONENT_COUNT>
1

> <PUBCHEM_CACTVS_TAUTO_COUNT>
-1

> <PUBCHEM_COORDINATE_TYPE>
1
5
255

$$$$
1549040
  -OEChem-02061913162D

 11 11  0     0  0  0  0  0  0999 V2000
    2.8660   -2.3100    0.0000 O   0  0  0  0  0  0  0  0  0  0  0  0
    2.8660    0.6900    0.0000 C   0  0  0  0  0  0  0  0  0  0  0  0
    2.0000    0.1900    0.0000 C   0  0  0  0  0  0  0  0  0  0  0  0
    3.7320    0.1900    0.0000 C   0  0  0  0  0  0  0  0  0  0  0  0
    2.8660   -1.3100    0.0000 C   0  0  0  0  0  0  0  0  0  0  0  0
    2.0000   -0.8100    0.0000 C   0  0  0  0  0  0  0  0  0  0  0  0
    3.7320   -0.8100    0.0000 C   0  0  0  0  0  0  0  0  0  0  0  0
    2.8660    1.6900    0.0000 C   0  0  0  0  0  0  0  0  0  0  0  0
    3.7320    2.1900    0.0000 C   0  0  0  0  0  0  0  0  0  0  0  0
    4.5981    1.6900    0.0000 C   0  0  0  0  0  0  0  0  0  0  0  0
    2.0000   -2.8100    0.0000 C   0  0  0  0  0  0  0  0  0  0  0  0
  1  5  1  0  0  0  0
  1 11  1  0  0  0  0
  2  3  2  0  0  0  0
  2  4  1  0  0  0  0
  2  8  1  0  0  0  0
  3  6  1  0  0  0  0
  4  7  2  0  0  0  0
  5  6  2  0  0  0  0
  5  7  1  0  0  0  0
  8  9  2  0  0  0  0
  9 10  1  0  0  0  0
M  END
> <PUBCHEM_COMPOUND_CID>
1549040

> <PUBCHEM_COMPOUND_CANONICALIZED>
1

> <PUBCHEM_CACTVS_COMPLEXITY>
121

> <PUBCHEM_CACTVS_HBOND_ACCEPTOR>
1

> <PUBCHEM_CACTVS_HBOND_DONOR>
0

> <PUBCHEM_CACTVS_ROTATABLE_BOND>
2

> <PUBCHEM_CACTVS_SUBSKEYS>
AAADccBwIAAAAAAAAAAAAAAAAAAAAAAAAAAwAAAAAAAAAAABAAAAGgAAAAAADASAmAIyBoAABACAAiBCAAACCAAgIAAIiAAGCIgMJiKEMRqAMCAkwBEIqAeAwAAOIAAAAAAAAABAAAAAAAAAAAAAAAAAAA==

> <PUBCHEM_IUPAC_OPENEYE_NAME>
1-methoxy-4-[(~{Z})-prop-1-enyl]benzene

> <PUBCHEM_IUPAC_CAS_NAME>
1-methoxy-4-[(~{Z})-prop-1-enyl]benzene

> <PUBCHEM_IUPAC_NAME>
1-methoxy-4-[(~{Z})-prop-1-enyl]benzene

> <PUBCHEM_IUPAC_SYSTEMATIC_NAME>
1-methoxy-4-[(~{Z})-prop-1-enyl]benzene

> <PUBCHEM_IUPAC_TRADITIONAL_NAME>
1-methoxy-4-[(~{Z})-prop-1-enyl]benzene

> <PUBCHEM_IUPAC_INCHI>
InChI=1S/C10H12O/c1-3-4-9-5-7-10(11-2)8-6-9/h3-8H,1-2H3/b4-3-

> <PUBCHEM_IUPAC_INCHIKEY>
RUVINXPYWBROJD-ARJAWSKDSA-N

> <PUBCHEM_XLOGP3>
3.3

> <PUBCHEM_EXACT_MASS>
148.089

> <PUBCHEM_MOLECULAR_FORMULA>
C10H12O

> <PUBCHEM_MOLECULAR_WEIGHT>
148.205

> <PUBCHEM_OPENEYE_CAN_SMILES>
CC=CC1=CC=C(C=C1)OC

> <PUBCHEM_OPENEYE_ISO_SMILES>
C/C=C\C1=CC=C(C=C1)OC

> <PUBCHEM_CACTVS_TPSA>
9.2

> <PUBCHEM_MONOISOTOPIC_WEIGHT>
148.089

> <PUBCHEM_TOTAL_CHARGE>
0

> <PUBCHEM_HEAVY_ATOM_COUNT>
11

> <PUBCHEM_ATOM_DEF_STEREO_COUNT>
0

> <PUBCHEM_ATOM_UDEF_STEREO_COUNT>
0

> <PUBCHEM_BOND_DEF_STEREO_COUNT>
1

> <PUBCHEM_BOND_UDEF_STEREO_COUNT>
0

> <PUBCHEM_ISOTOPIC_ATOM_COUNT>
0

> <PUBCHEM_COMPONENT_COUNT>
1

> <PUBCHEM_CACTVS_TAUTO_COUNT>
-1

> <PUBCHEM_COORDINATE_TYPE>
1
5
255

> <PUBCHEM_BONDANNOTATIONS>
2  3  8
2  4  8
3  6  8
4  7  8
5  6  8
5  7  8

$$$$
2537
  -OEChem-02061913062D

 11 12  0     1  0  0  0  0  0999 V2000
    5.6137   -2.1590    0.0000 O   0  0  0  0  0  0  0  0  0  0  0  0
    3.2369    1.1644    0.0000 C   0  0  0  0  0  0  0  0  0  0  0  0
    3.7147   -0.7841    0.0000 C   0  0  3  0  0  0  0  0  0  0  0  0
    3.9735    0.1818    0.0000 C   0  0  3  0  0  0  0  0  0  0  0  0
    2.3420   -1.3761    0.0000 C   0  0  0  0  0  0  0  0  0  0  0  0
    2.0000   -0.4364    0.0000 C   0  0  0  0  0  0  0  0  0  0  0  0
    5.3725   -0.3270    0.0000 C   0  0  0  0  0  0  0  0  0  0  0  0
    5.1137   -1.2929    0.0000 C   0  0  0  0  0  0  0  0  0  0  0  0
    3.3415    2.1590    0.0000 C   0  0  0  0  0  0  0  0  0  0  0  0
    2.3234    1.5712    0.0000 C   0  0  0  0  0  0  0  0  0  0  0  0
    3.4559   -1.7500    0.0000 C   0  0  0  0  0  0  0  0  0  0  0  0
  1  8  2  0  0  0  0
  2  3  1  0  0  0  0
  2  4  1  0  0  0  0
  2  9  1  0  0  0  0
  2 10  1  0  0  0  0
  3  5  1  0  0  0  0
  3  8  1  0  0  0  0
  3 11  1  0  0  0  0
  4  6  1  0  0  0  0
  4  7  1  0  0  0  0
  5  6  1  0  0  0  0
  7  8  1  0  0  0  0
M  END
> <PUBCHEM_COMPOUND_CID>
2537

> <PUBCHEM_COMPOUND_CANONICALIZED>
1

> <PUBCHEM_CACTVS_COMPLEXITY>
217

> <PUBCHEM_CACTVS_HBOND_ACCEPTOR>
1

> <PUBCHEM_CACTVS_HBOND_DONOR>
0

> <PUBCHEM_CACTVS_ROTATABLE_BOND>
0

> <PUBCHEM_CACTVS_SUBSKEYS>
AAADceBwIAAAAAAAAAAAAAAAAAAAAYMAAAAwAAAAAAAAAAAAAAAAGgAAAAAADwSAgAACAAAAAAAIAIAQAAAAAAAAAAAAAAEAAAAAABIAAAAAAAAAAAAAAAEIiMCPgAAAAAAAAACAAAAAAAAAAQAACAAAAA==

> <PUBCHEM_IUPAC_OPENEYE_NAME>
1,7,7-trimethylnorbornan-2-one

> <PUBCHEM_IUPAC_CAS_NAME>
1,7,7-trimethyl-2-bicyclo[2.2.1]heptanone

> <PUBCHEM_IUPAC_NAME>
1,7,7-trimethylbicyclo[2.2.1]heptan-2-one

> <PUBCHEM_IUPAC_SYSTEMATIC_NAME>
1,7,7-trimethylbicyclo[2.2.1]heptan-2-one

> <PUBCHEM_IUPAC_TRADITIONAL_NAME>
camphor

> <PUBCHEM_IUPAC_INCHI>
InChI=1S/C10H16O/c1-9(2)7-4-5-10(9,3)8(11)6-7/h7H,4-6H2,1-3H3

> <PUBCHEM_IUPAC_INCHIKEY>
DSSYKIVIOFKYAU-UHFFFAOYSA-N

> <PUBCHEM_XLOGP3_AA>
2.2

> <PUBCHEM_EXACT_MASS>
152.12

> <PUBCHEM_MOLECULAR_FORMULA>
C10H16O

> <PUBCHEM_MOLECULAR_WEIGHT>
152.237

> <PUBCHEM_OPENEYE_CAN_SMILES>
CC1(C2CCC1(C(=O)C2)C)C

> <PUBCHEM_OPENEYE_ISO_SMILES>
CC1(C2CCC1(C(=O)C2)C)C

> <PUBCHEM_CACTVS_TPSA>
17.1

> <PUBCHEM_MONOISOTOPIC_WEIGHT>
152.12

> <PUBCHEM_TOTAL_CHARGE>
0

> <PUBCHEM_HEAVY_ATOM_COUNT>
11

> <PUBCHEM_ATOM_DEF_STEREO_COUNT>
0

> <PUBCHEM_ATOM_UDEF_STEREO_COUNT>
2

> <PUBCHEM_BOND_DEF_STEREO_COUNT>
0

> <PUBCHEM_BOND_UDEF_STEREO_COUNT>
0

> <PUBCHEM_ISOTOPIC_ATOM_COUNT>
0

> <PUBCHEM_COMPONENT_COUNT>
1

> <PUBCHEM_CACTVS_TAUTO_COUNT>
-1

> <PUBCHEM_COORDINATE_TYPE>
1
5
255

> <PUBCHEM_BONDANNOTATIONS>
3  2  3
4  2  3

$$$$
949
  -OEChem-02061913062D

  9  9  0     0  0  0  0  0  0999 V2000
    2.8660    1.2500    0.0000 N   0  0  0  0  0  0  0  0  0  0  0  0
    2.8660    0.2500    0.0000 C   0  0  0  0  0  0  0  0  0  0  0  0
    2.0000   -0.2500    0.0000 C   0  0  0  0  0  0  0  0  0  0  0  0
    3.7320   -0.2500    0.0000 C   0  0  0  0  0  0  0  0  0  0  0  0
    3.7320    1.7500    0.0000 C   0  0  0  0  0  0  0  0  0  0  0  0
    2.0000    1.7500    0.0000 C   0  0  0  0  0  0  0  0  0  0  0  0
    2.0000   -1.2500    0.0000 C   0  0  0  0  0  0  0  0  0  0  0  0
    3.7320   -1.2500    0.0000 C   0  0  0  0  0  0  0  0  0  0  0  0
    2.8660   -1.7500    0.0000 C   0  0  0  0  0  0  0  0  0  0  0  0
  1  2  1  0  0  0  0
  1  5  1  0  0  0  0
  1  6  1  0  0  0  0
  2  3  2  0  0  0  0
  2  4  1  0  0  0  0
  3  7  1  0  0  0  0
  4  8  2  0  0  0  0
  7  9  2  0  0  0  0
  8  9  1  0  0  0  0
M  END
> <PUBCHEM_COMPOUND_CID>
949

> <PUBCHEM_COMPOUND_CANONICALIZED>
1

> <PUBCHEM_CACTVS_COMPLEXITY>
72.6

> <PUBCHEM_CACTVS_HBOND_ACCEPTOR>
1

> <PUBCHEM_CACTVS_HBOND_DONOR>
0

> <PUBCHEM_CACTVS_ROTATABLE_BOND>
1

> <PUBCHEM_CACTVS_SUBSKEYS>
AAADccByAAAAAAAAAAAAAAAAAAAAAAAAAAAwAAAAAAAAAAABAAAAHAAAAAAACAiBEAQywIMAAACAACRCQACCAAAhAgAIiAAIZIgIICLAkZGEIAhggABIyAcQAAAAAAAAAAAAAAAAAAAAAAAAAAAAAAAAAA==

> <PUBCHEM_IUPAC_OPENEYE_NAME>
~{N},~{N}-dimethylaniline

> <PUBCHEM_IUPAC_CAS_NAME>
~{N},~{N}-dimethylaniline

> <PUBCHEM_IUPAC_NAME>
~{N},~{N}-dimethylaniline

> <PUBCHEM_IUPAC_SYSTEMATIC_NAME>
~{N},~{N}-dimethylaniline

> <PUBCHEM_IUPAC_TRADITIONAL_NAME>
dimethyl(phenyl)amine

> <PUBCHEM_IUPAC_INCHI>
InChI=1S/C8H11N/c1-9(2)8-6-4-3-5-7-8/h3-7H,1-2H3

> <PUBCHEM_IUPAC_INCHIKEY>
JLTDJTHDQAWBAV-UHFFFAOYSA-N

> <PUBCHEM_XLOGP3>
2.3

> <PUBCHEM_EXACT_MASS>
121.089

> <PUBCHEM_MOLECULAR_FORMULA>
C8H11N

> <PUBCHEM_MOLECULAR_WEIGHT>
121.183

> <PUBCHEM_OPENEYE_CAN_SMILES>
CN(C)C1=CC=CC=C1

> <PUBCHEM_OPENEYE_ISO_SMILES>
CN(C)C1=CC=CC=C1

> <PUBCHEM_CACTVS_TPSA>
3.2

> <PUBCHEM_MONOISOTOPIC_WEIGHT>
121.089

> <PUBCHEM_TOTAL_CHARGE>
0

> <PUBCHEM_HEAVY_ATOM_COUNT>
9

> <PUBCHEM_ATOM_DEF_STEREO_COUNT>
0

> <PUBCHEM_ATOM_UDEF_STEREO_COUNT>
0

> <PUBCHEM_BOND_DEF_STEREO_COUNT>
0

> <PUBCHEM_BOND_UDEF_STEREO_COUNT>
0

> <PUBCHEM_ISOTOPIC_ATOM_COUNT>
0

> <PUBCHEM_COMPONENT_COUNT>
1

> <PUBCHEM_CACTVS_TAUTO_COUNT>
-1

> <PUBCHEM_COORDINATE_TYPE>
1
5
255

> <PUBCHEM_BONDANNOTATIONS>
2  3  8
2  4  8
3  7  8
4  8  8
7  9  8
8  9  8

$$$$
7975
  -OEChem-02061913072D

  7  7  0     0  0  0  0  0  0999 V2000
    3.7320   -1.0000    0.0000 N   0  0  0  0  0  0  0  0  0  0  0  0
    2.8660   -0.5000    0.0000 C   0  0  0  0  0  0  0  0  0  0  0  0
    2.8660    0.5000    0.0000 C   0  0  0  0  0  0  0  0  0  0  0  0
    2.0000   -1.0000    0.0000 C   0  0  0  0  0  0  0  0  0  0  0  0
    3.7320    1.0000    0.0000 C   0  0  0  0  0  0  0  0  0  0  0  0
    4.5981    0.5000    0.0000 C   0  0  0  0  0  0  0  0  0  0  0  0
    4.5981   -0.5000    0.0000 C   0  0  0  0  0  0  0  0  0  0  0  0
  1  2  1  0  0  0  0
  1  7  2  0  0  0  0
  2  3  2  0  0  0  0
  2  4  1  0  0  0  0
  3  5  1  0  0  0  0
  5  6  2  0  0  0  0
  6  7  1  0  0  0  0
M  END
> <PUBCHEM_COMPOUND_CID>
7975

> <PUBCHEM_COMPOUND_CANONICALIZED>
1

> <PUBCHEM_CACTVS_COMPLEXITY>
52.1

> <PUBCHEM_CACTVS_HBOND_ACCEPTOR>
1

> <PUBCHEM_CACTVS_HBOND_DONOR>
0

> <PUBCHEM_CACTVS_ROTATABLE_BOND>
0

> <PUBCHEM_CACTVS_SUBSKEYS>
AAADcYBiAAAAAAAAAAAAAAAAAAAAAAAAAAAsAAAAAAAAAAABgAAAHAAAAAAACAjBFgQ+gJIIEACgATRnRACCgCAxAiAI2CA4ZJgIIOLAkZGEIAhggADIyAcQAAAAAAAAAAAAAAAAAAAAAAAAAAAAAAAAAA==

> <PUBCHEM_IUPAC_OPENEYE_NAME>
2-methylpyridine

> <PUBCHEM_IUPAC_CAS_NAME>
2-methylpyridine

> <PUBCHEM_IUPAC_NAME>
2-methylpyridine

> <PUBCHEM_IUPAC_SYSTEMATIC_NAME>
2-methylpyridine

> <PUBCHEM_IUPAC_TRADITIONAL_NAME>
$a-picoline

> <PUBCHEM_IUPAC_INCHI>
InChI=1S/C6H7N/c1-6-4-2-3-5-7-6/h2-5H,1H3

> <PUBCHEM_IUPAC_INCHIKEY>
BSKHPKMHTQYZBB-UHFFFAOYSA-N

> <PUBCHEM_XLOGP3>
1.1

> <PUBCHEM_EXACT_MASS>
93.058

> <PUBCHEM_MOLECULAR_FORMULA>
C6H7N

> <PUBCHEM_MOLECULAR_WEIGHT>
93.129

> <PUBCHEM_OPENEYE_CAN_SMILES>
CC1=CC=CC=N1

> <PUBCHEM_OPENEYE_ISO_SMILES>
CC1=CC=CC=N1

> <PUBCHEM_CACTVS_TPSA>
12.9

> <PUBCHEM_MONOISOTOPIC_WEIGHT>
93.058

> <PUBCHEM_TOTAL_CHARGE>
0

> <PUBCHEM_HEAVY_ATOM_COUNT>
7

> <PUBCHEM_ATOM_DEF_STEREO_COUNT>
0

> <PUBCHEM_ATOM_UDEF_STEREO_COUNT>
0

> <PUBCHEM_BOND_DEF_STEREO_COUNT>
0

> <PUBCHEM_BOND_UDEF_STEREO_COUNT>
0

> <PUBCHEM_ISOTOPIC_ATOM_COUNT>
0

> <PUBCHEM_COMPONENT_COUNT>
1

> <PUBCHEM_CACTVS_TAUTO_COUNT>
-1

> <PUBCHEM_COORDINATE_TYPE>
1
5
255

> <PUBCHEM_BONDANNOTATIONS>
1  2  8
1  7  8
2  3  8
3  5  8
5  6  8
6  7  8

$$$$
7057
  -OEChem-02061913072D

 11 12  0     0  0  0  0  0  0999 V2000
    2.5369   -0.7073    0.0000 N   0  0  0  0  0  0  0  0  0  0  0  0
    5.1350   -0.2073    0.0000 C   0  0  0  0  0  0  0  0  0  0  0  0
    5.1350    0.7927    0.0000 C   0  0  0  0  0  0  0  0  0  0  0  0
    4.2690   -0.7073    0.0000 C   0  0  0  0  0  0  0  0  0  0  0  0
    4.2690    1.2927    0.0000 C   0  0  0  0  0  0  0  0  0  0  0  0
    3.4030   -0.2073    0.0000 C   0  0  0  0  0  0  0  0  0  0  0  0
    6.0290   -0.7420    0.0000 C   0  0  0  0  0  0  0  0  0  0  0  0
    6.0290    1.3273    0.0000 C   0  0  0  0  0  0  0  0  0  0  0  0
    3.4030    0.7927    0.0000 C   0  0  0  0  0  0  0  0  0  0  0  0
    6.9350   -0.2281    0.0000 C   0  0  0  0  0  0  0  0  0  0  0  0
    6.9350    0.8135    0.0000 C   0  0  0  0  0  0  0  0  0  0  0  0
  1  6  1  0  0  0  0
  2  3  1  0  0  0  0
  2  4  1  0  0  0  0
  2  7  2  0  0  0  0
  3  5  1  0  0  0  0
  3  8  2  0  0  0  0
  4  6  2  0  0  0  0
  5  9  2  0  0  0  0
  6  9  1  0  0  0  0
  7 10  1  0  0  0  0
  8 11  1  0  0  0  0
 10 11  2  0  0  0  0
M  END
> <PUBCHEM_COMPOUND_CID>
7057

> <PUBCHEM_COMPOUND_CANONICALIZED>
1

> <PUBCHEM_CACTVS_COMPLEXITY>
133

> <PUBCHEM_CACTVS_HBOND_ACCEPTOR>
1

> <PUBCHEM_CACTVS_HBOND_DONOR>
1

> <PUBCHEM_CACTVS_ROTATABLE_BOND>
0

> <PUBCHEM_CACTVS_SUBSKEYS>
AAADccByAAAAAAAAAAAAAAAAAAAAAAAAAAAwYAAAAAAAAADBUAAAHAAQAAAADAiBGAAwwMBAAACAAiRCQACCAAAgAgAIiAAAZIgIICKAkZGAIABgkAAIyAcQgIAOiAAAQAAQAAAQAACAACAAAAAAAAAAAA==

> <PUBCHEM_IUPAC_OPENEYE_NAME>
naphthalen-2-amine

> <PUBCHEM_IUPAC_CAS_NAME>
2-naphthalenamine

> <PUBCHEM_IUPAC_NAME>
naphthalen-2-amine

> <PUBCHEM_IUPAC_SYSTEMATIC_NAME>
naphthalen-2-amine

> <PUBCHEM_IUPAC_TRADITIONAL_NAME>
2-naphthylamine

> <PUBCHEM_IUPAC_INCHI>
InChI=1S/C10H9N/c11-10-6-5-8-3-1-2-4-9(8)7-10/h1-7H,11H2

> <PUBCHEM_IUPAC_INCHIKEY>
JBIJLHTVPXGSAM-UHFFFAOYSA-N

> <PUBCHEM_XLOGP3>
2.3

> <PUBCHEM_EXACT_MASS>
143.073

> <PUBCHEM_MOLECULAR_FORMULA>
C10H9N

> <PUBCHEM_MOLECULAR_WEIGHT>
143.189

> <PUBCHEM_OPENEYE_CAN_SMILES>
C1=CC=C2C=C(C=CC2=C1)N

> <PUBCHEM_OPENEYE_ISO_SMILES>
C1=CC=C2C=C(C=CC2=C1)N

> <PUBCHEM_CACTVS_TPSA>
26

> <PUBCHEM_MONOISOTOPIC_WEIGHT>
143.073

> <PUBCHEM_TOTAL_CHARGE>
0

> <PUBCHEM_HEAVY_ATOM_COUNT>
11

> <PUBCHEM_ATOM_DEF_STEREO_COUNT>
0

> <PUBCHEM_ATOM_UDEF_STEREO_COUNT>
0

> <PUBCHEM_BOND_DEF_STEREO_COUNT>
0

> <PUBCHEM_BOND_UDEF_STEREO_COUNT>
0

> <PUBCHEM_ISOTOPIC_ATOM_COUNT>
0

> <PUBCHEM_COMPONENT_COUNT>
1

> <PUBCHEM_CACTVS_TAUTO_COUNT>
-1

> <PUBCHEM_COORDINATE_TYPE>
1
5
255

> <PUBCHEM_BONDANNOTATIONS>
10  11  8
2  3  8
2  4  8
2  7  8
3  5  8
3  8  8
4  6  8
5  9  8
6  9  8
7  10  8
8  11  8

$$$$
6372069
  -OEChem-02061913372D

 29 31  0     1  0  0  0  0  0999 V2000
    2.0000   -4.8465    0.0000 O   0  0  0  0  0  0  0  0  0  0  0  0
    3.7320    1.1535    0.0000 C   0  0  3  0  0  0  0  0  0  0  0  0
    4.6783    1.4582    0.0000 C   0  0  3  0  0  0  0  0  0  0  0  0
    3.7320    0.1535    0.0000 C   0  0  3  0  0  0  0  0  0  0  0  0
    5.2619    0.6535    0.0000 C   0  0  0  0  0  0  0  0  0  0  0  0
    4.6783   -0.1512    0.0000 C   0  0  0  0  0  0  0  0  0  0  0  0
    2.8660    1.6535    0.0000 C   0  0  0  0  0  0  0  0  0  0  0  0
    4.9889    2.4087    0.0000 C   0  0  3  0  0  0  0  0  0  0  0  0
    2.8660   -0.3465    0.0000 C   0  0  0  0  0  0  0  0  0  0  0  0
    3.7320    2.1535    0.0000 C   0  0  0  0  0  0  0  0  0  0  0  0
    2.0000    1.1535    0.0000 C   0  0  0  0  0  0  0  0  0  0  0  0
    2.0000    0.1535    0.0000 C   0  0  0  0  0  0  0  0  0  0  0  0
    4.3211    3.1530    0.0000 C   0  0  0  0  0  0  0  0  0  0  0  0
    5.9674    2.6150    0.0000 C   0  0  0  0  0  0  0  0  0  0  0  0
    2.8660   -1.3465    0.0000 C   0  0  0  0  0  0  0  0  0  0  0  0
    6.2781    3.5655    0.0000 C   0  0  0  0  0  0  0  0  0  0  0  0
    3.7320   -1.8465    0.0000 C   0  0  0  0  0  0  0  0  0  0  0  0
    7.2566    3.7717    0.0000 C   0  0  3  0  0  0  0  0  0  0  0  0
    3.7320   -2.8465    0.0000 C   0  0  0  0  0  0  0  0  0  0  0  0
    7.5673    4.7222    0.0000 C   0  0  0  0  0  0  0  0  0  0  0  0
    2.8660   -3.3465    0.0000 C   0  0  0  0  0  0  0  0  0  0  0  0
    7.9244    3.0274    0.0000 C   0  0  0  0  0  0  0  0  0  0  0  0
    4.5981   -3.3465    0.0000 C   0  0  0  0  0  0  0  0  0  0  0  0
    2.8660   -4.3465    0.0000 C   0  0  3  0  0  0  0  0  0  0  0  0
    4.5981   -4.3465    0.0000 C   0  0  0  0  0  0  0  0  0  0  0  0
    3.7320   -4.8465    0.0000 C   0  0  0  0  0  0  0  0  0  0  0  0
    8.5458    4.9284    0.0000 C   0  0  0  0  0  0  0  0  0  0  0  0
    6.8994    5.4665    0.0000 C   0  0  0  0  0  0  0  0  0  0  0  0
    5.4641   -2.8465    0.0000 C   0  0  0  0  0  0  0  0  0  0  0  0
  1 24  1  0  0  0  0
  2  3  1  0  0  0  0
  2  4  1  0  0  0  0
  2  7  1  0  0  0  0
  2 10  1  0  0  0  0
  3  5  1  0  0  0  0
  3  8  1  0  0  0  0
  4  6  1  0  0  0  0
  4  9  1  0  0  0  0
  5  6  1  0  0  0  0
  7 11  1  0  0  0  0
  8 13  1  0  0  0  0
  8 14  1  0  0  0  0
  9 12  1  0  0  0  0
  9 15  2  0  0  0  0
 11 12  1  0  0  0  0
 14 16  2  0  0  0  0
 15 17  1  0  0  0  0
 16 18  1  0  0  0  0
 17 19  2  0  0  0  0
 18 20  1  0  0  0  0
 18 22  1  0  0  0  0
 19 21  1  0  0  0  0
 19 23  1  0  0  0  0
 20 27  1  0  0  0  0
 20 28  1  0  0  0  0
 21 24  1  0  0  0  0
 23 25  1  0  0  0  0
 23 29  2  0  0  0  0
 24 26  1  0  0  0  0
 25 26  1  0  0  0  0
M  END
> <PUBCHEM_COMPOUND_CID>
6372069

> <PUBCHEM_COMPOUND_CANONICALIZED>
1

> <PUBCHEM_CACTVS_COMPLEXITY>
678

> <PUBCHEM_CACTVS_HBOND_ACCEPTOR>
1

> <PUBCHEM_CACTVS_HBOND_DONOR>
1

> <PUBCHEM_CACTVS_ROTATABLE_BOND>
5

> <PUBCHEM_CACTVS_SUBSKEYS>
AAADcfB4IAAAAAAAAAAAAAAAAAAAAYAAAAAwYAAAAAAAAGAAAAAAGgAACAAADxSggAICAAAAAgCAAiBCAAAAAAAgAAAICAAAAAgIEAIAAQAAQAAEwAAIgAOAwMAPgAAAAAAAAAAAAAAAACAAAQAACAAAAA==

> <PUBCHEM_IUPAC_OPENEYE_NAME>
(3~{E})-3-[(2~{Z})-2-[7~{a}-methyl-1-[(~{E})-1,4,5-trimethylhex-2-enyl]-2,3,3~{a},5,6,7-hexahydro-1~{H}-inden-4-ylidene]ethylidene]-4-methylene-cyclohexanol

> <PUBCHEM_IUPAC_CAS_NAME>
(3~{E})-3-[(2~{Z})-2-[1-[(~{E})-5,6-dimethylhept-3-en-2-yl]-7~{a}-methyl-2,3,3~{a},5,6,7-hexahydro-1~{H}-inden-4-ylidene]ethylidene]-4-methylene-1-cyclohexanol

> <PUBCHEM_IUPAC_NAME>
(3~{E})-3-[(2~{Z})-2-[1-[(~{E})-5,6-dimethylhept-3-en-2-yl]-7~{a}-methyl-2,3,3~{a},5,6,7-hexahydro-1~{H}-inden-4-ylidene]ethylidene]-4-methylidenecyclohexan-1-ol

> <PUBCHEM_IUPAC_SYSTEMATIC_NAME>
(3~{E})-3-[(2~{Z})-2-[1-[(~{E})-5,6-dimethylhept-3-en-2-yl]-7~{a}-methyl-2,3,3~{a},5,6,7-hexahydro-1~{H}-inden-4-ylidene]ethylidene]-4-methylidene-cyclohexan-1-ol

> <PUBCHEM_IUPAC_TRADITIONAL_NAME>
(3~{E})-3-[(2~{Z})-2-[7~{a}-methyl-1-[(~{E})-1,4,5-trimethylhex-2-enyl]-2,3,3~{a},5,6,7-hexahydro-1~{H}-inden-4-ylidene]ethylidene]-4-methylene-cyclohexanol

> <PUBCHEM_IUPAC_INCHI>
InChI=1S/C28H44O/c1-19(2)20(3)9-10-22(5)26-15-16-27-23(8-7-17-28(26,27)6)12-13-24-18-25(29)14-11-21(24)4/h9-10,12-13,19-20,22,25-27,29H,4,7-8,11,14-18H2,1-3,5-6H3/b10-9+,23-12-,24-13+

> <PUBCHEM_IUPAC_INCHIKEY>
MECHNRXZTMCUDQ-VMABKRNASA-N

> <PUBCHEM_XLOGP3_AA>
7.4

> <PUBCHEM_EXACT_MASS>
396.339

> <PUBCHEM_MOLECULAR_FORMULA>
C28H44O

> <PUBCHEM_MOLECULAR_WEIGHT>
396.659

> <PUBCHEM_OPENEYE_CAN_SMILES>
CC(C)C(C)C=CC(C)C1CCC2C1(CCCC2=CC=C3CC(CCC3=C)O)C

> <PUBCHEM_OPENEYE_ISO_SMILES>
CC(C)C(C)/C=C/C(C)C1CCC\2C1(CCC/C2=C/C=C/3\CC(CCC3=C)O)C

> <PUBCHEM_CACTVS_TPSA>
20.2

> <PUBCHEM_MONOISOTOPIC_WEIGHT>
396.339

> <PUBCHEM_TOTAL_CHARGE>
0

> <PUBCHEM_HEAVY_ATOM_COUNT>
29

> <PUBCHEM_ATOM_DEF_STEREO_COUNT>
0

> <PUBCHEM_ATOM_UDEF_STEREO_COUNT>
6

> <PUBCHEM_BOND_DEF_STEREO_COUNT>
3

> <PUBCHEM_BOND_UDEF_STEREO_COUNT>
0

> <PUBCHEM_ISOTOPIC_ATOM_COUNT>
0

> <PUBCHEM_COMPONENT_COUNT>
1

> <PUBCHEM_CACTVS_TAUTO_COUNT>
-1

> <PUBCHEM_COORDINATE_TYPE>
1
5
255

> <PUBCHEM_BONDANNOTATIONS>
24  1  3
18  22  3
2  10  3
3  5  3
4  9  3
8  13  3

$$$$
10364
  -OEChem-02061913072D

 11 11  0     0  0  0  0  0  0999 V2000
    2.5369   -1.2500    0.0000 O   0  0  0  0  0  0  0  0  0  0  0  0
    4.2690    1.7500    0.0000 C   0  0  0  0  0  0  0  0  0  0  0  0
    4.2690    0.7500    0.0000 C   0  0  0  0  0  0  0  0  0  0  0  0
    5.1350    2.2500    0.0000 C   0  0  0  0  0  0  0  0  0  0  0  0
    3.4030    2.2500    0.0000 C   0  0  0  0  0  0  0  0  0  0  0  0
    3.4030    0.2500    0.0000 C   0  0  0  0  0  0  0  0  0  0  0  0
    5.1350    0.2500    0.0000 C   0  0  0  0  0  0  0  0  0  0  0  0
    4.2690   -1.2500    0.0000 C   0  0  0  0  0  0  0  0  0  0  0  0
    3.4030   -0.7500    0.0000 C   0  0  0  0  0  0  0  0  0  0  0  0
    5.1350   -0.7500    0.0000 C   0  0  0  0  0  0  0  0  0  0  0  0
    4.2690   -2.2500    0.0000 C   0  0  0  0  0  0  0  0  0  0  0  0
  1  9  1  0  0  0  0
  2  3  1  0  0  0  0
  2  4  1  0  0  0  0
  2  5  1  0  0  0  0
  3  6  2  0  0  0  0
  3  7  1  0  0  0  0
  6  9  1  0  0  0  0
  7 10  2  0  0  0  0
  8  9  2  0  0  0  0
  8 10  1  0  0  0  0
  8 11  1  0  0  0  0
M  END
> <PUBCHEM_COMPOUND_CID>
10364

> <PUBCHEM_COMPOUND_CANONICALIZED>
1

> <PUBCHEM_CACTVS_COMPLEXITY>
120

> <PUBCHEM_CACTVS_HBOND_ACCEPTOR>
1

> <PUBCHEM_CACTVS_HBOND_DONOR>
1

> <PUBCHEM_CACTVS_ROTATABLE_BOND>
1

> <PUBCHEM_CACTVS_SUBSKEYS>
AAADccBwIAAAAAAAAAAAAAAAAAAAAAAAAAAwAAAAAAAAAAABAAAAGgAACAAADQSAmAAyBoAAAgCAAiBCAAACAAAgIAAIiAAGCIgIJiKCERKAcAAkwBEImAeAwPAOwAABAAAIAACAAAIAABAAAAAAAAAAAA==

> <PUBCHEM_IUPAC_OPENEYE_NAME>
5-isopropyl-2-methyl-phenol

> <PUBCHEM_IUPAC_CAS_NAME>
2-methyl-5-propan-2-ylphenol

> <PUBCHEM_IUPAC_NAME>
2-methyl-5-propan-2-ylphenol

> <PUBCHEM_IUPAC_SYSTEMATIC_NAME>
2-methyl-5-propan-2-yl-phenol

> <PUBCHEM_IUPAC_TRADITIONAL_NAME>
carvacrol

> <PUBCHEM_IUPAC_INCHI>
InChI=1S/C10H14O/c1-7(2)9-5-4-8(3)10(11)6-9/h4-7,11H,1-3H3

> <PUBCHEM_IUPAC_INCHIKEY>
RECUKUPTGUEGMW-UHFFFAOYSA-N

> <PUBCHEM_XLOGP3>
3.1

> <PUBCHEM_EXACT_MASS>
150.104

> <PUBCHEM_MOLECULAR_FORMULA>
C10H14O

> <PUBCHEM_MOLECULAR_WEIGHT>
150.221

> <PUBCHEM_OPENEYE_CAN_SMILES>
CC1=C(C=C(C=C1)C(C)C)O

> <PUBCHEM_OPENEYE_ISO_SMILES>
CC1=C(C=C(C=C1)C(C)C)O

> <PUBCHEM_CACTVS_TPSA>
20.2

> <PUBCHEM_MONOISOTOPIC_WEIGHT>
150.104

> <PUBCHEM_TOTAL_CHARGE>
0

> <PUBCHEM_HEAVY_ATOM_COUNT>
11

> <PUBCHEM_ATOM_DEF_STEREO_COUNT>
0

> <PUBCHEM_ATOM_UDEF_STEREO_COUNT>
0

> <PUBCHEM_BOND_DEF_STEREO_COUNT>
0

> <PUBCHEM_BOND_UDEF_STEREO_COUNT>
0

> <PUBCHEM_ISOTOPIC_ATOM_COUNT>
0

> <PUBCHEM_COMPONENT_COUNT>
1

> <PUBCHEM_CACTVS_TAUTO_COUNT>
-1

> <PUBCHEM_COORDINATE_TYPE>
1
5
255

> <PUBCHEM_BONDANNOTATIONS>
3  6  8
3  7  8
6  9  8
7  10  8
8  10  8
8  9  8

$$$$
7965
  -OEChem-02061913072D

  7  7  0     0  0  0  0  0  0999 V2000
    2.8660    1.3450    0.0000 N   0  0  0  0  0  0  0  0  0  0  0  0
    2.8660    0.3450    0.0000 C   0  0  0  0  0  0  0  0  0  0  0  0
    2.0000   -0.1550    0.0000 C   0  0  0  0  0  0  0  0  0  0  0  0
    3.7320   -0.1550    0.0000 C   0  0  0  0  0  0  0  0  0  0  0  0
    3.7320   -1.1550    0.0000 C   0  0  0  0  0  0  0  0  0  0  0  0
    2.0000   -1.1550    0.0000 C   0  0  0  0  0  0  0  0  0  0  0  0
    2.8660   -1.6550    0.0000 C   0  0  0  0  0  0  0  0  0  0  0  0
  1  2  1  0  0  0  0
  2  3  1  0  0  0  0
  2  4  1  0  0  0  0
  3  6  1  0  0  0  0
  4  5  1  0  0  0  0
  5  7  1  0  0  0  0
  6  7  1  0  0  0  0
M  END
> <PUBCHEM_COMPOUND_CID>
7965

> <PUBCHEM_COMPOUND_CANONICALIZED>
1

> <PUBCHEM_CACTVS_COMPLEXITY>
46.1

> <PUBCHEM_CACTVS_HBOND_ACCEPTOR>
1

> <PUBCHEM_CACTVS_HBOND_DONOR>
1

> <PUBCHEM_CACTVS_ROTATABLE_BOND>
0

> <PUBCHEM_CACTVS_SUBSKEYS>
AAADccBiAAAAAAAAAAAAAAAAAAAAAAAAAAAwAAAAAAAAAAAAAAAAHAAQAAAACCjBAAQAAABAAAAAAAAAAAAAAAAAAAAAAIAAAAAAAAIAgAAAAAAAEAAAAAEQAAAAAAAAAAAAAAAAAAAAAAAAAAAAAAAAAA==

> <PUBCHEM_IUPAC_OPENEYE_NAME>
cyclohexanamine

> <PUBCHEM_IUPAC_CAS_NAME>
cyclohexanamine

> <PUBCHEM_IUPAC_NAME>
cyclohexanamine

> <PUBCHEM_IUPAC_SYSTEMATIC_NAME>
cyclohexanamine

> <PUBCHEM_IUPAC_TRADITIONAL_NAME>
cyclohexylamine

> <PUBCHEM_IUPAC_INCHI>
InChI=1S/C6H13N/c7-6-4-2-1-3-5-6/h6H,1-5,7H2

> <PUBCHEM_IUPAC_INCHIKEY>
PAFZNILMFXTMIY-UHFFFAOYSA-N

> <PUBCHEM_XLOGP3>
1.5

> <PUBCHEM_EXACT_MASS>
99.105

> <PUBCHEM_MOLECULAR_FORMULA>
C6H13N

> <PUBCHEM_MOLECULAR_WEIGHT>
99.177

> <PUBCHEM_OPENEYE_CAN_SMILES>
C1CCC(CC1)N

> <PUBCHEM_OPENEYE_ISO_SMILES>
C1CCC(CC1)N

> <PUBCHEM_CACTVS_TPSA>
26

> <PUBCHEM_MONOISOTOPIC_WEIGHT>
99.105

> <PUBCHEM_TOTAL_CHARGE>
0

> <PUBCHEM_HEAVY_ATOM_COUNT>
7

> <PUBCHEM_ATOM_DEF_STEREO_COUNT>
0

> <PUBCHEM_ATOM_UDEF_STEREO_COUNT>
0

> <PUBCHEM_BOND_DEF_STEREO_COUNT>
0

> <PUBCHEM_BOND_UDEF_STEREO_COUNT>
0

> <PUBCHEM_ISOTOPIC_ATOM_COUNT>
0

> <PUBCHEM_COMPONENT_COUNT>
1

> <PUBCHEM_CACTVS_TAUTO_COUNT>
-1

> <PUBCHEM_COORDINATE_TYPE>
1
5
255

$$$$
2244
  -OEChem-02061913062D

 13 13  0     0  0  0  0  0  0999 V2000
    3.7320   -0.0600    0.0000 O   0  0  0  0  0  0  0  0  0  0  0  0
    6.3301    1.4400    0.0000 O   0  0  0  0  0  0  0  0  0  0  0  0
    4.5981    1.4400    0.0000 O   0  0  0  0  0  0  0  0  0  0  0  0
    2.8660   -1.5600    0.0000 O   0  0  0  0  0  0  0  0  0  0  0  0
    4.5981   -0.5600    0.0000 C   0  0  0  0  0  0  0  0  0  0  0  0
    5.4641   -0.0600    0.0000 C   0  0  0  0  0  0  0  0  0  0  0  0
    4.5981   -1.5600    0.0000 C   0  0  0  0  0  0  0  0  0  0  0  0
    6.3301   -0.5600    0.0000 C   0  0  0  0  0  0  0  0  0  0  0  0
    5.4641   -2.0600    0.0000 C   0  0  0  0  0  0  0  0  0  0  0  0
    6.3301   -1.5600    0.0000 C   0  0  0  0  0  0  0  0  0  0  0  0
    5.4641    0.9400    0.0000 C   0  0  0  0  0  0  0  0  0  0  0  0
    2.8660   -0.5600    0.0000 C   0  0  0  0  0  0  0  0  0  0  0  0
    2.0000   -0.0600    0.0000 C   0  0  0  0  0  0  0  0  0  0  0  0
  1  5  1  0  0  0  0
  1 12  1  0  0  0  0
  2 11  1  0  0  0  0
  3 11  2  0  0  0  0
  4 12  2  0  0  0  0
  5  6  1  0  0  0  0
  5  7  2  0  0  0  0
  6  8  2  0  0  0  0
  6 11  1  0  0  0  0
  7  9  1  0  0  0  0
  8 10  1  0  0  0  0
  9 10  2  0  0  0  0
 12 13  1  0  0  0  0
M  END
> <PUBCHEM_COMPOUND_CID>
2244

> <PUBCHEM_COMPOUND_CANONICALIZED>
1

> <PUBCHEM_CACTVS_COMPLEXITY>
212

> <PUBCHEM_CACTVS_HBOND_ACCEPTOR>
4

> <PUBCHEM_CACTVS_HBOND_DONOR>
1

> <PUBCHEM_CACTVS_ROTATABLE_BOND>
3

> <PUBCHEM_CACTVS_SUBSKEYS>
AAADccBwOAAAAAAAAAAAAAAAAAAAAAAAAAAwAAAAAAAAAAABAAAAGgAACAAADASAmAAyDoAABgCIAiDSCAACCAAkIAAIiAEGCMgMJzaENRqCe2Cl4BEIuYeIyCCOAAAAAAAIAAAAAAAAABAAAAAAAAAAAA==

> <PUBCHEM_IUPAC_OPENEYE_NAME>
2-acetoxybenzoic acid

> <PUBCHEM_IUPAC_CAS_NAME>
2-acetyloxybenzoic acid

> <PUBCHEM_IUPAC_NAME>
2-acetyloxybenzoic acid

> <PUBCHEM_IUPAC_SYSTEMATIC_NAME>
2-acetyloxybenzoic acid

> <PUBCHEM_IUPAC_TRADITIONAL_NAME>
2-acetoxybenzoic acid

> <PUBCHEM_IUPAC_INCHI>
InChI=1S/C9H8O4/c1-6(10)13-8-5-3-2-4-7(8)9(11)12/h2-5H,1H3,(H,11,12)

> <PUBCHEM_IUPAC_INCHIKEY>
BSYNRYMUTXBXSQ-UHFFFAOYSA-N

> <PUBCHEM_XLOGP3>
1.2

> <PUBCHEM_EXACT_MASS>
180.042

> <PUBCHEM_MOLECULAR_FORMULA>
C9H8O4

> <PUBCHEM_MOLECULAR_WEIGHT>
180.159

> <PUBCHEM_OPENEYE_CAN_SMILES>
CC(=O)OC1=CC=CC=C1C(=O)O

> <PUBCHEM_OPENEYE_ISO_SMILES>
CC(=O)OC1=CC=CC=C1C(=O)O

> <PUBCHEM_CACTVS_TPSA>
63.6

> <PUBCHEM_MONOISOTOPIC_WEIGHT>
180.042

> <PUBCHEM_TOTAL_CHARGE>
0

> <PUBCHEM_HEAVY_ATOM_COUNT>
13

> <PUBCHEM_ATOM_DEF_STEREO_COUNT>
0

> <PUBCHEM_ATOM_UDEF_STEREO_COUNT>
0

> <PUBCHEM_BOND_DEF_STEREO_COUNT>
0

> <PUBCHEM_BOND_UDEF_STEREO_COUNT>
0

> <PUBCHEM_ISOTOPIC_ATOM_COUNT>
0

> <PUBCHEM_COMPONENT_COUNT>
1

> <PUBCHEM_CACTVS_TAUTO_COUNT>
-1

> <PUBCHEM_COORDINATE_TYPE>
1
5
255

> <PUBCHEM_BONDANNOTATIONS>
5  6  8
5  7  8
6  8  8
7  9  8
8  10  8
9  10  8

$$$$
6781
  -OEChem-02061913072D

 16 16  0     0  0  0  0  0  0999 V2000
    3.7320   -1.0000    0.0000 O   0  0  0  0  0  0  0  0  0  0  0  0
    7.1962    1.0000    0.0000 O   0  0  0  0  0  0  0  0  0  0  0  0
    4.5981    0.5000    0.0000 O   0  0  0  0  0  0  0  0  0  0  0  0
    5.4641    1.0000    0.0000 O   0  0  0  0  0  0  0  0  0  0  0  0
    6.3301   -0.5000    0.0000 C   0  0  0  0  0  0  0  0  0  0  0  0
    5.4641   -1.0000    0.0000 C   0  0  0  0  0  0  0  0  0  0  0  0
    7.1962   -1.0000    0.0000 C   0  0  0  0  0  0  0  0  0  0  0  0
    5.4641   -2.0000    0.0000 C   0  0  0  0  0  0  0  0  0  0  0  0
    6.3301    0.5000    0.0000 C   0  0  0  0  0  0  0  0  0  0  0  0
    4.5981   -0.5000    0.0000 C   0  0  0  0  0  0  0  0  0  0  0  0
    6.3301   -2.5000    0.0000 C   0  0  0  0  0  0  0  0  0  0  0  0
    7.1962   -2.0000    0.0000 C   0  0  0  0  0  0  0  0  0  0  0  0
    2.8660   -0.5000    0.0000 C   0  0  0  0  0  0  0  0  0  0  0  0
    7.1962    2.0000    0.0000 C   0  0  0  0  0  0  0  0  0  0  0  0
    2.0000   -1.0000    0.0000 C   0  0  0  0  0  0  0  0  0  0  0  0
    8.0622    2.5000    0.0000 C   0  0  0  0  0  0  0  0  0  0  0  0
  1 10  1  0  0  0  0
  1 13  1  0  0  0  0
  2  9  1  0  0  0  0
  2 14  1  0  0  0  0
  3 10  2  0  0  0  0
  4  9  2  0  0  0  0
  5  6  1  0  0  0  0
  5  7  2  0  0  0  0
  5  9  1  0  0  0  0
  6  8  2  0  0  0  0
  6 10  1  0  0  0  0
  7 12  1  0  0  0  0
  8 11  1  0  0  0  0
 11 12  2  0  0  0  0
 13 15  1  0  0  0  0
 14 16  1  0  0  0  0
M  END
> <PUBCHEM_COMPOUND_CID>
6781

> <PUBCHEM_COMPOUND_CANONICALIZED>
1

> <PUBCHEM_CACTVS_COMPLEXITY>
223

> <PUBCHEM_CACTVS_HBOND_ACCEPTOR>
4

> <PUBCHEM_CACTVS_HBOND_DONOR>
0

> <PUBCHEM_CACTVS_ROTATABLE_BOND>
6

> <PUBCHEM_CACTVS_SUBSKEYS>
AAADccBwOAAAAAAAAAAAAAAAAAAAAAAAAAAwAAAAAAAAAAABAAAAGgAAAAAADACgmAIyCIAABACIAiDSCAACAAAkAAAIiAEACMgIJjKANRiCMQAkwAEIqYfLyKCOgAAAAAAQAAAAAAAAACAAAAAAAAAAAA==

> <PUBCHEM_IUPAC_OPENEYE_NAME>
diethyl benzene-1,2-dicarboxylate

> <PUBCHEM_IUPAC_CAS_NAME>
benzene-1,2-dicarboxylic acid diethyl ester

> <PUBCHEM_IUPAC_NAME>
diethyl benzene-1,2-dicarboxylate

> <PUBCHEM_IUPAC_SYSTEMATIC_NAME>
diethyl benzene-1,2-dicarboxylate

> <PUBCHEM_IUPAC_TRADITIONAL_NAME>
benzene-1,2-dicarboxylic acid diethyl ester

> <PUBCHEM_IUPAC_INCHI>
InChI=1S/C12H14O4/c1-3-15-11(13)9-7-5-6-8-10(9)12(14)16-4-2/h5-8H,3-4H2,1-2H3

> <PUBCHEM_IUPAC_INCHIKEY>
FLKPEMZONWLCSK-UHFFFAOYSA-N

> <PUBCHEM_XLOGP3>
2.5

> <PUBCHEM_EXACT_MASS>
222.089

> <PUBCHEM_MOLECULAR_FORMULA>
C12H14O4

> <PUBCHEM_MOLECULAR_WEIGHT>
222.24

> <PUBCHEM_OPENEYE_CAN_SMILES>
CCOC(=O)C1=CC=CC=C1C(=O)OCC

> <PUBCHEM_OPENEYE_ISO_SMILES>
CCOC(=O)C1=CC=CC=C1C(=O)OCC

> <PUBCHEM_CACTVS_TPSA>
52.6

> <PUBCHEM_MONOISOTOPIC_WEIGHT>
222.089

> <PUBCHEM_TOTAL_CHARGE>
0

> <PUBCHEM_HEAVY_ATOM_COUNT>
16

> <PUBCHEM_ATOM_DEF_STEREO_COUNT>
0

> <PUBCHEM_ATOM_UDEF_STEREO_COUNT>
0

> <PUBCHEM_BOND_DEF_STEREO_COUNT>
0

> <PUBCHEM_BOND_UDEF_STEREO_COUNT>
0

> <PUBCHEM_ISOTOPIC_ATOM_COUNT>
0

> <PUBCHEM_COMPONENT_COUNT>
1

> <PUBCHEM_CACTVS_TAUTO_COUNT>
-1

> <PUBCHEM_COORDINATE_TYPE>
1
5
255

> <PUBCHEM_BONDANNOTATIONS>
11  12  8
5  6  8
5  7  8
6  8  8
7  12  8
8  11  8

$$$$
134129492
  -OEChem-02061915112D

122132  0     1  0  0  0  0  0999 V2000
   12.9292    1.0000    0.0000 O   0  0  0  0  0  0  0  0  0  0  0  0
   12.9292   -2.0000    0.0000 O   0  0  0  0  0  0  0  0  0  0  0  0
   11.1972   -1.0000    0.0000 O   0  0  0  0  0  0  0  0  0  0  0  0
   14.6613   -1.0000    0.0000 O   0  0  0  0  0  0  0  0  0  0  0  0
   14.6613    1.0000    0.0000 O   0  0  0  0  0  0  0  0  0  0  0  0
   11.1972    2.0000    0.0000 O   0  0  0  0  0  0  0  0  0  0  0  0
   11.1972   -2.0000    0.0000 O   0  0  0  0  0  0  0  0  0  0  0  0
   10.3312    0.5000    0.0000 O   0  0  0  0  0  0  0  0  0  0  0  0
   15.5273    0.5000    0.0000 O   0  0  0  0  0  0  0  0  0  0  0  0
   13.7953    2.5000    0.0000 O   0  0  0  0  0  0  0  0  0  0  0  0
    9.4651    2.0000    0.0000 O   0  0  0  0  0  0  0  0  0  0  0  0
   10.3312   -5.5000    0.0000 O   0  0  0  0  0  0  0  0  0  0  0  0
    6.8671   -0.5000    0.0000 O   0  0  0  0  0  0  0  0  0  0  0  0
   17.2594   -3.5000    0.0000 O   0  0  0  0  0  0  0  0  0  0  0  0
   13.7953   -5.5000    0.0000 O   0  0  0  0  0  0  0  0  0  0  0  0
    8.5991   -3.5000    0.0000 O   0  0  0  0  0  0  0  0  0  0  0  0
   18.9914   -0.5000    0.0000 O   0  0  0  0  0  0  0  0  0  0  0  0
   18.1254    2.0000    0.0000 O   0  0  0  0  0  0  0  0  0  0  0  0
   12.0632   -6.5000    0.0000 O   0  0  0  0  0  0  0  0  0  0  0  0
    6.8671   -2.5000    0.0000 O   0  0  0  0  0  0  0  0  0  0  0  0
   16.3933    5.0000    0.0000 O   0  0  0  0  0  0  0  0  0  0  0  0
   18.9914   -2.5000    0.0000 O   0  0  0  0  0  0  0  0  0  0  0  0
   18.1254    4.0000    0.0000 O   0  0  0  0  0  0  0  0  0  0  0  0
   12.0632    5.5000    0.0000 O   0  0  0  0  0  0  0  0  0  0  0  0
    8.5991    5.5000    0.0000 O   0  0  0  0  0  0  0  0  0  0  0  0
   10.3312    6.5000    0.0000 O   0  0  0  0  0  0  0  0  0  0  0  0
   11.1972   -7.0000    0.0000 O   0  0  0  0  0  0  0  0  0  0  0  0
    6.0010   -2.0000    0.0000 O   0  0  0  0  0  0  0  0  0  0  0  0
   18.9914   -3.5000    0.0000 O   0  0  0  0  0  0  0  0  0  0  0  0
   18.9914    3.5000    0.0000 O   0  0  0  0  0  0  0  0  0  0  0  0
   11.1972    7.0000    0.0000 O   0  0  0  0  0  0  0  0  0  0  0  0
    6.8671   -6.5000    0.0000 O   0  0  0  0  0  0  0  0  0  0  0  0
    8.5991   -9.5000    0.0000 O   0  0  0  0  0  0  0  0  0  0  0  0
    4.2690    2.0000    0.0000 O   0  0  0  0  0  0  0  0  0  0  0  0
    2.5369   -1.0000    0.0000 O   0  0  0  0  0  0  0  0  0  0  0  0
   19.8574   -7.0000    0.0000 O   0  0  0  0  0  0  0  0  0  0  0  0
   16.3933   -7.0000    0.0000 O   0  0  0  0  0  0  0  0  0  0  0  0
    6.8671   -8.5000    0.0000 O   0  0  0  0  0  0  0  0  0  0  0  0
    2.5369    1.0000    0.0000 O   0  0  0  0  0  0  0  0  0  0  0  0
   22.4555    2.5000    0.0000 O   0  0  0  0  0  0  0  0  0  0  0  0
   20.7235   -0.5000    0.0000 O   0  0  0  0  0  0  0  0  0  0  0  0
   18.1254   -8.0000    0.0000 O   0  0  0  0  0  0  0  0  0  0  0  0
   22.4555    0.5000    0.0000 O   0  0  0  0  0  0  0  0  0  0  0  0
   15.5273    6.5000    0.0000 O   0  0  0  0  0  0  0  0  0  0  0  0
   13.7953    9.5000    0.0000 O   0  0  0  0  0  0  0  0  0  0  0  0
   15.5273    8.5000    0.0000 O   0  0  0  0  0  0  0  0  0  0  0  0
   12.9292   -1.0000    0.0000 C   0  0  2  0  0  0  0  0  0  0  0  0
   12.0632   -0.5000    0.0000 C   0  0  1  0  0  0  0  0  0  0  0  0
   13.7953   -0.5000    0.0000 C   0  0  2  0  0  0  0  0  0  0  0  0
   12.0632    0.5000    0.0000 C   0  0  1  0  0  0  0  0  0  0  0  0
   13.7953    0.5000    0.0000 C   0  0  1  0  0  0  0  0  0  0  0  0
   11.1972    1.0000    0.0000 C   0  0  0  0  0  0  0  0  0  0  0  0
   12.0632   -2.5000    0.0000 C   0  0  0  0  0  0  0  0  0  0  0  0
   10.3312   -0.5000    0.0000 C   0  0  0  0  0  0  0  0  0  0  0  0
   15.5273   -0.5000    0.0000 C   0  0  0  0  0  0  0  0  0  0  0  0
   14.6613    2.0000    0.0000 C   0  0  0  0  0  0  0  0  0  0  0  0
   12.0632   -3.5000    0.0000 C   0  0  0  0  0  0  0  0  0  0  0  0
    9.4651   -1.0000    0.0000 C   0  0  0  0  0  0  0  0  0  0  0  0
   16.3933   -1.0000    0.0000 C   0  0  0  0  0  0  0  0  0  0  0  0
   10.3312    2.5000    0.0000 C   0  0  0  0  0  0  0  0  0  0  0  0
   15.5273    2.5000    0.0000 C   0  0  0  0  0  0  0  0  0  0  0  0
   10.3312    3.5000    0.0000 C   0  0  0  0  0  0  0  0  0  0  0  0
   11.1972   -4.0000    0.0000 C   0  0  0  0  0  0  0  0  0  0  0  0
    8.5991   -0.5000    0.0000 C   0  0  0  0  0  0  0  0  0  0  0  0
   12.9292   -4.0000    0.0000 C   0  0  0  0  0  0  0  0  0  0  0  0
    9.4651   -2.0000    0.0000 C   0  0  0  0  0  0  0  0  0  0  0  0
   16.3933   -2.0000    0.0000 C   0  0  0  0  0  0  0  0  0  0  0  0
   17.2594   -0.5000    0.0000 C   0  0  0  0  0  0  0  0  0  0  0  0
   16.3933    2.0000    0.0000 C   0  0  0  0  0  0  0  0  0  0  0  0
   15.5273    3.5000    0.0000 C   0  0  0  0  0  0  0  0  0  0  0  0
   11.1972   -5.0000    0.0000 C   0  0  0  0  0  0  0  0  0  0  0  0
    7.7331   -1.0000    0.0000 C   0  0  0  0  0  0  0  0  0  0  0  0
   12.9292   -5.0000    0.0000 C   0  0  0  0  0  0  0  0  0  0  0  0
    8.5991   -2.5000    0.0000 C   0  0  0  0  0  0  0  0  0  0  0  0
   17.2594   -2.5000    0.0000 C   0  0  0  0  0  0  0  0  0  0  0  0
   18.1254   -1.0000    0.0000 C   0  0  0  0  0  0  0  0  0  0  0  0
   11.1972    4.0000    0.0000 C   0  0  0  0  0  0  0  0  0  0  0  0
    9.4651    4.0000    0.0000 C   0  0  0  0  0  0  0  0  0  0  0  0
   12.0632   -5.5000    0.0000 C   0  0  0  0  0  0  0  0  0  0  0  0
    7.7331   -2.0000    0.0000 C   0  0  0  0  0  0  0  0  0  0  0  0
   17.2594    2.5000    0.0000 C   0  0  0  0  0  0  0  0  0  0  0  0
   16.3933    4.0000    0.0000 C   0  0  0  0  0  0  0  0  0  0  0  0
   18.1254   -2.0000    0.0000 C   0  0  0  0  0  0  0  0  0  0  0  0
   17.2594    3.5000    0.0000 C   0  0  0  0  0  0  0  0  0  0  0  0
   11.1972    5.0000    0.0000 C   0  0  0  0  0  0  0  0  0  0  0  0
    9.4651    5.0000    0.0000 C   0  0  0  0  0  0  0  0  0  0  0  0
   10.3312    5.5000    0.0000 C   0  0  0  0  0  0  0  0  0  0  0  0
   10.3312   -6.5000    0.0000 C   0  0  0  0  0  0  0  0  0  0  0  0
    6.0010   -1.0000    0.0000 C   0  0  0  0  0  0  0  0  0  0  0  0
   18.1254   -4.0000    0.0000 C   0  0  0  0  0  0  0  0  0  0  0  0
   18.9914    2.5000    0.0000 C   0  0  0  0  0  0  0  0  0  0  0  0
    9.4651   -7.0000    0.0000 C   0  0  0  0  0  0  0  0  0  0  0  0
    5.1350   -0.5000    0.0000 C   0  0  0  0  0  0  0  0  0  0  0  0
   12.0632    6.5000    0.0000 C   0  0  0  0  0  0  0  0  0  0  0  0
   18.1254   -5.0000    0.0000 C   0  0  0  0  0  0  0  0  0  0  0  0
   19.8574    2.0000    0.0000 C   0  0  0  0  0  0  0  0  0  0  0  0
   12.9292    7.0000    0.0000 C   0  0  0  0  0  0  0  0  0  0  0  0
    9.4651   -8.0000    0.0000 C   0  0  0  0  0  0  0  0  0  0  0  0
    8.5991   -6.5000    0.0000 C   0  0  0  0  0  0  0  0  0  0  0  0
    4.2690   -1.0000    0.0000 C   0  0  0  0  0  0  0  0  0  0  0  0
    5.1350    0.5000    0.0000 C   0  0  0  0  0  0  0  0  0  0  0  0
   17.2594   -5.5000    0.0000 C   0  0  0  0  0  0  0  0  0  0  0  0
   18.9914   -5.5000    0.0000 C   0  0  0  0  0  0  0  0  0  0  0  0
   19.8574    1.0000    0.0000 C   0  0  0  0  0  0  0  0  0  0  0  0
   20.7235    2.5000    0.0000 C   0  0  0  0  0  0  0  0  0  0  0  0
    7.7331   -7.0000    0.0000 C   0  0  0  0  0  0  0  0  0  0  0  0
    8.5991   -8.5000    0.0000 C   0  0  0  0  0  0  0  0  0  0  0  0
    4.2690    1.0000    0.0000 C   0  0  0  0  0  0  0  0  0  0  0  0
    3.4030   -0.5000    0.0000 C   0  0  0  0  0  0  0  0  0  0  0  0
   18.9914   -6.5000    0.0000 C   0  0  0  0  0  0  0  0  0  0  0  0
   17.2594   -6.5000    0.0000 C   0  0  0  0  0  0  0  0  0  0  0  0
   12.9292    8.0000    0.0000 C   0  0  0  0  0  0  0  0  0  0  0  0
   13.7953    6.5000    0.0000 C   0  0  0  0  0  0  0  0  0  0  0  0
    7.7331   -8.0000    0.0000 C   0  0  0  0  0  0  0  0  0  0  0  0
    3.4030    0.5000    0.0000 C   0  0  0  0  0  0  0  0  0  0  0  0
   21.5895    2.0000    0.0000 C   0  0  0  0  0  0  0  0  0  0  0  0
   20.7235    0.5000    0.0000 C   0  0  0  0  0  0  0  0  0  0  0  0
   18.1254   -7.0000    0.0000 C   0  0  0  0  0  0  0  0  0  0  0  0
   21.5895    1.0000    0.0000 C   0  0  0  0  0  0  0  0  0  0  0  0
   14.6613    7.0000    0.0000 C   0  0  0  0  0  0  0  0  0  0  0  0
   13.7953    8.5000    0.0000 C   0  0  0  0  0  0  0  0  0  0  0  0
   14.6613    8.0000    0.0000 C   0  0  0  0  0  0  0  0  0  0  0  0
  1 50  1  0  0  0  0
  1 51  1  0  0  0  0
 47  2  1  6  0  0  0
  2 53  1  0  0  0  0
 48  3  1  6  0  0  0
  3 54  1  0  0  0  0
 49  4  1  6  0  0  0
  4 55  1  0  0  0  0
 51  5  1  1  0  0  0
  5 56  1  0  0  0  0
  6 52  1  0  0  0  0
  6 60  1  0  0  0  0
  7 53  2  0  0  0  0
  8 54  2  0  0  0  0
  9 55  2  0  0  0  0
 10 56  2  0  0  0  0
 11 60  2  0  0  0  0
 12 71  1  0  0  0  0
 12 88  1  0  0  0  0
 13 72  1  0  0  0  0
 13 89  1  0  0  0  0
 14 75  1  0  0  0  0
 14 90  1  0  0  0  0
 15 73  1  0  0  0  0
 16 74  1  0  0  0  0
 17 76  1  0  0  0  0
 18 81  1  0  0  0  0
 18 91  1  0  0  0  0
 19 79  1  0  0  0  0
 20 80  1  0  0  0  0
 21 82  1  0  0  0  0
 22 83  1  0  0  0  0
 23 84  1  0  0  0  0
 24 85  1  0  0  0  0
 24 94  1  0  0  0  0
 25 86  1  0  0  0  0
 26 87  1  0  0  0  0
 27 88  2  0  0  0  0
 28 89  2  0  0  0  0
 29 90  2  0  0  0  0
 30 91  2  0  0  0  0
 31 94  2  0  0  0  0
 32106  1  0  0  0  0
 33107  1  0  0  0  0
 34108  1  0  0  0  0
 35109  1  0  0  0  0
 36110  1  0  0  0  0
 37111  1  0  0  0  0
 38114  1  0  0  0  0
 39115  1  0  0  0  0
 40116  1  0  0  0  0
 41117  1  0  0  0  0
 42118  1  0  0  0  0
 43119  1  0  0  0  0
 44120  1  0  0  0  0
 45121  1  0  0  0  0
 46122  1  0  0  0  0
 47 48  1  0  0  0  0
 47 49  1  0  0  0  0
 48 50  1  0  0  0  0
 49 51  1  0  0  0  0
 50 52  1  1  0  0  0
 53 57  1  0  0  0  0
 54 58  1  0  0  0  0
 55 59  1  0  0  0  0
 56 61  1  0  0  0  0
 57 63  1  0  0  0  0
 57 65  2  0  0  0  0
 58 64  1  0  0  0  0
 58 66  2  0  0  0  0
 59 67  1  0  0  0  0
 59 68  2  0  0  0  0
 60 62  1  0  0  0  0
 61 69  1  0  0  0  0
 61 70  2  0  0  0  0
 62 77  1  0  0  0  0
 62 78  2  0  0  0  0
 63 71  2  0  0  0  0
 64 72  2  0  0  0  0
 65 73  1  0  0  0  0
 66 74  1  0  0  0  0
 67 75  2  0  0  0  0
 68 76  1  0  0  0  0
 69 81  2  0  0  0  0
 70 82  1  0  0  0  0
 71 79  1  0  0  0  0
 72 80  1  0  0  0  0
 73 79  2  0  0  0  0
 74 80  2  0  0  0  0
 75 83  1  0  0  0  0
 76 83  2  0  0  0  0
 77 85  2  0  0  0  0
 78 86  1  0  0  0  0
 81 84  1  0  0  0  0
 82 84  2  0  0  0  0
 85 87  1  0  0  0  0
 86 87  2  0  0  0  0
 88 92  1  0  0  0  0
 89 93  1  0  0  0  0
 90 95  1  0  0  0  0
 91 96  1  0  0  0  0
 92 98  2  0  0  0  0
 92 99  1  0  0  0  0
 93100  2  0  0  0  0
 93101  1  0  0  0  0
 94 97  1  0  0  0  0
 95102  2  0  0  0  0
 95103  1  0  0  0  0
 96104  2  0  0  0  0
 96105  1  0  0  0  0
 97112  2  0  0  0  0
 97113  1  0  0  0  0
 98107  1  0  0  0  0
 99106  2  0  0  0  0
100109  1  0  0  0  0
101108  2  0  0  0  0
102111  1  0  0  0  0
103110  2  0  0  0  0
104117  1  0  0  0  0
105116  2  0  0  0  0
106114  1  0  0  0  0
107114  2  0  0  0  0
108115  1  0  0  0  0
109115  2  0  0  0  0
110118  1  0  0  0  0
111118  2  0  0  0  0
112121  1  0  0  0  0
113120  2  0  0  0  0
116119  1  0  0  0  0
117119  2  0  0  0  0
120122  1  0  0  0  0
121122  2  0  0  0  0
M  END
> <PUBCHEM_COMPOUND_CID>
134129492

> <PUBCHEM_COMPOUND_CANONICALIZED>
1

> <PUBCHEM_CACTVS_COMPLEXITY>
3570

> <PUBCHEM_CACTVS_HBOND_ACCEPTOR>
46

> <PUBCHEM_CACTVS_HBOND_DONOR>
25

> <PUBCHEM_CACTVS_ROTATABLE_BOND>
31

> <PUBCHEM_CACTVS_SUBSKEYS>
AAADcfB8PgAAAAAAAAAAAAAAAAAAAAAAAAA0YMGDAAAAAAABVAAAGgAACAAADBSwmAMwDoAABgCIAiDSCAACCAAkIAAAiAEGiMgdJzKGNRqieyOlwBUPuYfK7DzOIAABCAAAQABAAAIQAACAAAAAAAAAAA==

> <PUBCHEM_IUPAC_OPENEYE_NAME>
[2,3-dihydroxy-5-[[(2~{R},3~{R},4~{R},5~{R},6~{S})-3,4,5,6-tetrakis[[3,4-dihydroxy-5-(3,4,5-trihydroxybenzoyl)oxy-benzoyl]oxy]tetrahydropyran-2-yl]methoxycarbonyl]phenyl] 3,4,5-trihydroxybenzoate

> <PUBCHEM_IUPAC_CAS_NAME>
3,4,5-trihydroxybenzoic acid [2,3-dihydroxy-5-[oxo-[[(2~{R},3~{R},4~{R},5~{R},6~{S})-3,4,5,6-tetrakis[[3,4-dihydroxy-5-[oxo-(3,4,5-trihydroxyphenyl)methoxy]phenyl]-oxomethoxy]-2-oxanyl]methoxy]methyl]phenyl] ester

> <PUBCHEM_IUPAC_NAME>
[2,3-dihydroxy-5-[[(2~{R},3~{R},4~{R},5~{R},6~{S})-3,4,5,6-tetrakis[[3,4-dihydroxy-5-(3,4,5-trihydroxybenzoyl)oxybenzoyl]oxy]oxan-2-yl]methoxycarbonyl]phenyl] 3,4,5-trihydroxybenzoate

> <PUBCHEM_IUPAC_SYSTEMATIC_NAME>
[2,3-bis(oxidanyl)-5-[[(2~{R},3~{R},4~{R},5~{R},6~{S})-3,4,5,6-tetrakis[[3,4-bis(oxidanyl)-5-[3,4,5-tris(oxidanyl)phenyl]carbonyloxy-phenyl]carbonyloxy]oxan-2-yl]methoxycarbonyl]phenyl] 3,4,5-tris(oxidanyl)benzoate

> <PUBCHEM_IUPAC_TRADITIONAL_NAME>
3,4,5-trihydroxybenzoic acid [2,3-dihydroxy-5-[[(2~{R},3~{R},4~{R},5~{R},6~{S})-3,4,5,6-tetrakis[(3-galloyloxy-4,5-dihydroxy-benzoyl)oxy]tetrahydropyran-2-yl]methoxycarbonyl]phenyl] ester

> <PUBCHEM_IUPAC_INCHI>
InChI=1S/C76H52O46/c77-32-1-22(2-33(78)53(32)92)67(103)113-47-16-27(11-42(87)58(47)97)66(102)112-21-52-63(119-72(108)28-12-43(88)59(98)48(17-28)114-68(104)23-3-34(79)54(93)35(80)4-23)64(120-73(109)29-13-44(89)60(99)49(18-29)115-69(105)24-5-36(81)55(94)37(82)6-24)65(121-74(110)30-14-45(90)61(100)50(19-30)116-70(106)25-7-38(83)56(95)39(84)8-25)76(118-52)122-75(111)31-15-46(91)62(101)51(20-31)117-71(107)26-9-40(85)57(96)41(86)10-26/h1-20,52,63-65,76-101H,21H2/t52-,63-,64-,65-,76+/m1/s1

> <PUBCHEM_IUPAC_INCHIKEY>
LRBQNJMCXXYXIU-JPZKJCTESA-N

> <PUBCHEM_XLOGP3_AA>
6.2

> <PUBCHEM_EXACT_MASS>
1700.173

> <PUBCHEM_MOLECULAR_FORMULA>
C76H52O46

> <PUBCHEM_MOLECULAR_WEIGHT>
1701.206

> <PUBCHEM_OPENEYE_CAN_SMILES>
C1=C(C=C(C(=C1O)O)O)C(=O)OC2=CC(=CC(=C2O)O)C(=O)OCC3C(C(C(C(O3)OC(=O)C4=CC(=C(C(=C4)OC(=O)C5=CC(=C(C(=C5)O)O)O)O)O)OC(=O)C6=CC(=C(C(=C6)OC(=O)C7=CC(=C(C(=C7)O)O)O)O)O)OC(=O)C8=CC(=C(C(=C8)OC(=O)C9=CC(=C(C(=C9)O)O)O)O)O)OC(=O)C1=CC(=C(C(=C1)OC(=O)C1=CC(=C(C(=C1)O)O)O)O)O

> <PUBCHEM_OPENEYE_ISO_SMILES>
C1=C(C=C(C(=C1O)O)O)C(=O)OC2=CC(=CC(=C2O)O)C(=O)OC[C@@H]3[C@H]([C@H]([C@H]([C@@H](O3)OC(=O)C4=CC(=C(C(=C4)OC(=O)C5=CC(=C(C(=C5)O)O)O)O)O)OC(=O)C6=CC(=C(C(=C6)OC(=O)C7=CC(=C(C(=C7)O)O)O)O)O)OC(=O)C8=CC(=C(C(=C8)OC(=O)C9=CC(=C(C(=C9)O)O)O)O)O)OC(=O)C1=CC(=C(C(=C1)OC(=O)C1=CC(=C(C(=C1)O)O)O)O)O

> <PUBCHEM_CACTVS_TPSA>
778

> <PUBCHEM_MONOISOTOPIC_WEIGHT>
1700.173

> <PUBCHEM_TOTAL_CHARGE>
0

> <PUBCHEM_HEAVY_ATOM_COUNT>
122

> <PUBCHEM_ATOM_DEF_STEREO_COUNT>
5

> <PUBCHEM_ATOM_UDEF_STEREO_COUNT>
0

> <PUBCHEM_BOND_DEF_STEREO_COUNT>
0

> <PUBCHEM_BOND_UDEF_STEREO_COUNT>
0

> <PUBCHEM_ISOTOPIC_ATOM_COUNT>
0

> <PUBCHEM_COMPONENT_COUNT>
1

> <PUBCHEM_CACTVS_TAUTO_COUNT>
-1

> <PUBCHEM_COORDINATE_TYPE>
1
5
255

> <PUBCHEM_BONDANNOTATIONS>
100  109  8
101  108  8
102  111  8
103  110  8
104  117  8
105  116  8
106  114  8
107  114  8
108  115  8
109  115  8
110  118  8
111  118  8
112  121  8
113  120  8
116  119  8
117  119  8
120  122  8
121  122  8
47  2  6
48  3  6
49  4  6
51  5  5
50  52  5
57  63  8
57  65  8
58  64  8
58  66  8
59  67  8
59  68  8
61  69  8
61  70  8
62  77  8
62  78  8
63  71  8
64  72  8
65  73  8
66  74  8
67  75  8
68  76  8
69  81  8
70  82  8
71  79  8
72  80  8
73  79  8
74  80  8
75  83  8
76  83  8
77  85  8
78  86  8
81  84  8
82  84  8
85  87  8
86  87  8
92  98  8
92  99  8
93  100  8
93  101  8
95  102  8
95  103  8
96  104  8
96  105  8
97  112  8
97  113  8
98  107  8
99  106  8

$$$$
8030
  -OEChem-02061913072D

  5  5  0     0  0  0  0  0  0999 V2000
    2.8090   -0.7694    0.0000 S   0  0  0  0  0  0  0  0  0  0  0  0
    3.3090    0.7694    0.0000 C   0  0  0  0  0  0  0  0  0  0  0  0
    2.3090    0.7694    0.0000 C   0  0  0  0  0  0  0  0  0  0  0  0
    3.6180   -0.1816    0.0000 C   0  0  0  0  0  0  0  0  0  0  0  0
    2.0000   -0.1816    0.0000 C   0  0  0  0  0  0  0  0  0  0  0  0
  1  4  1  0  0  0  0
  1  5  1  0  0  0  0
  2  3  1  0  0  0  0
  2  4  2  0  0  0  0
  3  5  2  0  0  0  0
M  END
> <PUBCHEM_COMPOUND_CID>
8030

> <PUBCHEM_COMPOUND_CANONICALIZED>
1

> <PUBCHEM_CACTVS_COMPLEXITY>
22.8

> <PUBCHEM_CACTVS_HBOND_ACCEPTOR>
1

> <PUBCHEM_CACTVS_HBOND_DONOR>
0

> <PUBCHEM_CACTVS_ROTATABLE_BOND>
0

> <PUBCHEM_CACTVS_SUBSKEYS>
AAADcYBgAABAAAAAAAAAAAAAAAAAASAAAAAAAAAAAAAAAAABgAAAGAQAAAAACACEUACwAYAAAAiEACBCAAADAIAgCBBIiBgAAIgIIAAgAQAAAAAAAAAgAAAAAAAAAAAAAAAAAAAAAAAAAAAAAAAAAAAAAA==

> <PUBCHEM_IUPAC_OPENEYE_NAME>
thiophene

> <PUBCHEM_IUPAC_CAS_NAME>
thiophene

> <PUBCHEM_IUPAC_NAME>
thiophene

> <PUBCHEM_IUPAC_SYSTEMATIC_NAME>
thiophene

> <PUBCHEM_IUPAC_TRADITIONAL_NAME>
thiophene

> <PUBCHEM_IUPAC_INCHI>
InChI=1S/C4H4S/c1-2-4-5-3-1/h1-4H

> <PUBCHEM_IUPAC_INCHIKEY>
YTPLMLYBLZKORZ-UHFFFAOYSA-N

> <PUBCHEM_XLOGP3>
1.8

> <PUBCHEM_EXACT_MASS>
84.003

> <PUBCHEM_MOLECULAR_FORMULA>
C4H4S

> <PUBCHEM_MOLECULAR_WEIGHT>
84.136

> <PUBCHEM_OPENEYE_CAN_SMILES>
C1=CSC=C1

> <PUBCHEM_OPENEYE_ISO_SMILES>
C1=CSC=C1

> <PUBCHEM_CACTVS_TPSA>
28.2

> <PUBCHEM_MONOISOTOPIC_WEIGHT>
84.003

> <PUBCHEM_TOTAL_CHARGE>
0

> <PUBCHEM_HEAVY_ATOM_COUNT>
5

> <PUBCHEM_ATOM_DEF_STEREO_COUNT>
0

> <PUBCHEM_ATOM_UDEF_STEREO_COUNT>
0

> <PUBCHEM_BOND_DEF_STEREO_COUNT>
0

> <PUBCHEM_BOND_UDEF_STEREO_COUNT>
0

> <PUBCHEM_ISOTOPIC_ATOM_COUNT>
0

> <PUBCHEM_COMPONENT_COUNT>
1

> <PUBCHEM_CACTVS_TAUTO_COUNT>
-1

> <PUBCHEM_COORDINATE_TYPE>
1
5
255

> <PUBCHEM_BONDANNOTATIONS>
1  4  8
1  5  8
2  3  8
2  4  8
3  5  8

$$$$
440968
  -OEChem-02061913092D

 10 11  0     1  0  0  0  0  0999 V2000
    5.4490   -0.0329    0.0000 C   0  0  0  0  0  0  0  0  0  0  0  0
    4.3089    0.9242    0.0000 C   0  0  2  0  0  0  0  0  0  0  0  0
    4.0501   -0.0417    0.0000 C   0  0  1  0  0  0  0  0  0  0  0  0
    3.5723    1.9068    0.0000 C   0  0  0  0  0  0  0  0  0  0  0  0
    2.2756    0.6130    0.0000 C   0  0  0  0  0  0  0  0  0  0  0  0
    2.8290   -0.9074    0.0000 C   0  0  0  0  0  0  0  0  0  0  0  0
    6.3150    0.4671    0.0000 C   0  0  0  0  0  0  0  0  0  0  0  0
    5.9490   -0.8990    0.0000 C   0  0  0  0  0  0  0  0  0  0  0  0
    2.0000   -0.3482    0.0000 C   0  0  0  0  0  0  0  0  0  0  0  0
    2.8639   -1.9068    0.0000 C   0  0  0  0  0  0  0  0  0  0  0  0
  1  2  1  0  0  0  0
  1  3  1  0  0  0  0
  1  7  1  0  0  0  0
  1  8  1  0  0  0  0
  2  4  1  0  0  0  0
  2  5  1  0  0  0  0
  3  4  1  0  0  0  0
  3  6  1  0  0  0  0
  5  9  1  0  0  0  0
  6  9  2  0  0  0  0
  6 10  1  0  0  0  0
M  END
> <PUBCHEM_COMPOUND_CID>
440968

> <PUBCHEM_COMPOUND_CANONICALIZED>
1

> <PUBCHEM_CACTVS_COMPLEXITY>
186

> <PUBCHEM_CACTVS_HBOND_ACCEPTOR>
0

> <PUBCHEM_CACTVS_HBOND_DONOR>
0

> <PUBCHEM_CACTVS_ROTATABLE_BOND>
0

> <PUBCHEM_CACTVS_SUBSKEYS>
AAADceBwAAAAAAAAAAAAAAAAAABgAAAAAAAgQAAAAAAAAAAAAAAAGAAAAAAADwCAAAACAAAAAACAAiBCAAAAAAAgAAAACAAAAAgAAAIAAQAAAAAAgAAIAAMAgEAPgAAAAAAAAAAAAAAAAAAAAAAAAAAAAA==

> <PUBCHEM_IUPAC_OPENEYE_NAME>
(1~{S},5~{S})-2,6,6-trimethylbicyclo[3.1.1]hept-2-ene

> <PUBCHEM_IUPAC_CAS_NAME>
(1~{S},5~{S})-2,6,6-trimethylbicyclo[3.1.1]hept-2-ene

> <PUBCHEM_IUPAC_NAME>
(1~{S},5~{S})-2,6,6-trimethylbicyclo[3.1.1]hept-2-ene

> <PUBCHEM_IUPAC_SYSTEMATIC_NAME>
(1~{S},5~{S})-2,6,6-trimethylbicyclo[3.1.1]hept-2-ene

> <PUBCHEM_IUPAC_TRADITIONAL_NAME>
(1~{S},5~{S})-2,6,6-trimethylbicyclo[3.1.1]hept-2-ene

> <PUBCHEM_IUPAC_INCHI>
InChI=1S/C10H16/c1-7-4-5-8-6-9(7)10(8,2)3/h4,8-9H,5-6H2,1-3H3/t8-,9-/m0/s1

> <PUBCHEM_IUPAC_INCHIKEY>
GRWFGVWFFZKLTI-IUCAKERBSA-N

> <PUBCHEM_XLOGP3_AA>
2.8

> <PUBCHEM_EXACT_MASS>
136.125

> <PUBCHEM_MOLECULAR_FORMULA>
C10H16

> <PUBCHEM_MOLECULAR_WEIGHT>
136.238

> <PUBCHEM_OPENEYE_CAN_SMILES>
CC1=CCC2CC1C2(C)C

> <PUBCHEM_OPENEYE_ISO_SMILES>
CC1=CC[C@H]2C[C@@H]1C2(C)C

> <PUBCHEM_CACTVS_TPSA>
0

> <PUBCHEM_MONOISOTOPIC_WEIGHT>
136.125

> <PUBCHEM_TOTAL_CHARGE>
0

> <PUBCHEM_HEAVY_ATOM_COUNT>
10

> <PUBCHEM_ATOM_DEF_STEREO_COUNT>
2

> <PUBCHEM_ATOM_UDEF_STEREO_COUNT>
0

> <PUBCHEM_BOND_DEF_STEREO_COUNT>
0

> <PUBCHEM_BOND_UDEF_STEREO_COUNT>
0

> <PUBCHEM_ISOTOPIC_ATOM_COUNT>
0

> <PUBCHEM_COMPONENT_COUNT>
1

> <PUBCHEM_CACTVS_TAUTO_COUNT>
-1

> <PUBCHEM_COORDINATE_TYPE>
1
5
255

> <PUBCHEM_BONDANNOTATIONS>
2  11  6
3  12  5

$$$$
6040503
  -OEChem-02061913362D

 14 15  0     0  0  0  0  0  0999 V2000
    8.1424    0.3047    0.0000 O   0  0  0  0  0  0  0  0  0  0  0  0
    8.1424   -1.3047    0.0000 O   0  0  0  0  0  0  0  0  0  0  0  0
    2.8660    1.5000    0.0000 O   0  0  0  0  0  0  0  0  0  0  0  0
    7.1962    0.0000    0.0000 C   0  0  0  0  0  0  0  0  0  0  0  0
    7.1962   -1.0000    0.0000 C   0  0  0  0  0  0  0  0  0  0  0  0
    5.4641    0.0000    0.0000 C   0  0  0  0  0  0  0  0  0  0  0  0
    6.3301    0.5000    0.0000 C   0  0  0  0  0  0  0  0  0  0  0  0
    6.3301   -1.5000    0.0000 C   0  0  0  0  0  0  0  0  0  0  0  0
    5.4641   -1.0000    0.0000 C   0  0  0  0  0  0  0  0  0  0  0  0
    8.7260   -0.5000    0.0000 C   0  0  0  0  0  0  0  0  0  0  0  0
    4.5981    0.5000    0.0000 C   0  0  0  0  0  0  0  0  0  0  0  0
    3.7320   -0.0000    0.0000 C   0  0  0  0  0  0  0  0  0  0  0  0
    2.8660    0.5000    0.0000 C   0  0  0  0  0  0  0  0  0  0  0  0
    2.0000   -0.0000    0.0000 C   0  0  0  0  0  0  0  0  0  0  0  0
  1  4  1  0  0  0  0
  1 10  1  0  0  0  0
  2  5  1  0  0  0  0
  2 10  1  0  0  0  0
  3 13  2  0  0  0  0
  4  5  2  0  0  0  0
  4  7  1  0  0  0  0
  5  8  1  0  0  0  0
  6  7  2  0  0  0  0
  6  9  1  0  0  0  0
  6 11  1  0  0  0  0
  8  9  2  0  0  0  0
 11 12  2  0  0  0  0
 12 13  1  0  0  0  0
 13 14  1  0  0  0  0
M  END
> <PUBCHEM_COMPOUND_CID>
6040503

> <PUBCHEM_COMPOUND_CANONICALIZED>
1

> <PUBCHEM_CACTVS_COMPLEXITY>
247

> <PUBCHEM_CACTVS_HBOND_ACCEPTOR>
3

> <PUBCHEM_CACTVS_HBOND_DONOR>
0

> <PUBCHEM_CACTVS_ROTATABLE_BOND>
2

> <PUBCHEM_CACTVS_SUBSKEYS>
AAADccBwMAAAAAAAAAAAAAAAAAAAASAAAAAwAAAAAAAAAEgBAAAAGgAAAAAADASAmAMyDoAABACIAqBSAAACCAAgIAAIiAAGiMgdJiKEMRqgMCIkwBEOqYeAwBAOIAABAAAAQABAAAIAAACAAAAAAAAAAA==

> <PUBCHEM_IUPAC_OPENEYE_NAME>
(~{E})-4-(1,3-benzodioxol-5-yl)but-3-en-2-one

> <PUBCHEM_IUPAC_CAS_NAME>
(~{E})-4-(1,3-benzodioxol-5-yl)-3-buten-2-one

> <PUBCHEM_IUPAC_NAME>
(~{E})-4-(1,3-benzodioxol-5-yl)but-3-en-2-one

> <PUBCHEM_IUPAC_SYSTEMATIC_NAME>
(~{E})-4-(1,3-benzodioxol-5-yl)but-3-en-2-one

> <PUBCHEM_IUPAC_TRADITIONAL_NAME>
(~{E})-4-(1,3-benzodioxol-5-yl)but-3-en-2-one

> <PUBCHEM_IUPAC_INCHI>
InChI=1S/C11H10O3/c1-8(12)2-3-9-4-5-10-11(6-9)14-7-13-10/h2-6H,7H2,1H3/b3-2+

> <PUBCHEM_IUPAC_INCHIKEY>
XIYPXOFSURQTTJ-NSCUHMNNSA-N

> <PUBCHEM_XLOGP3>
2.2

> <PUBCHEM_EXACT_MASS>
190.063

> <PUBCHEM_MOLECULAR_FORMULA>
C11H10O3

> <PUBCHEM_MOLECULAR_WEIGHT>
190.198

> <PUBCHEM_OPENEYE_CAN_SMILES>
CC(=O)C=CC1=CC2=C(C=C1)OCO2

> <PUBCHEM_OPENEYE_ISO_SMILES>
CC(=O)/C=C/C1=CC2=C(C=C1)OCO2

> <PUBCHEM_CACTVS_TPSA>
35.5

> <PUBCHEM_MONOISOTOPIC_WEIGHT>
190.063

> <PUBCHEM_TOTAL_CHARGE>
0

> <PUBCHEM_HEAVY_ATOM_COUNT>
14

> <PUBCHEM_ATOM_DEF_STEREO_COUNT>
0

> <PUBCHEM_ATOM_UDEF_STEREO_COUNT>
0

> <PUBCHEM_BOND_DEF_STEREO_COUNT>
1

> <PUBCHEM_BOND_UDEF_STEREO_COUNT>
0

> <PUBCHEM_ISOTOPIC_ATOM_COUNT>
0

> <PUBCHEM_COMPONENT_COUNT>
1

> <PUBCHEM_CACTVS_TAUTO_COUNT>
-1

> <PUBCHEM_COORDINATE_TYPE>
1
5
255

> <PUBCHEM_BONDANNOTATIONS>
4  5  8
4  7  8
5  8  8
6  7  8
6  9  8
8  9  8

$$$$
227
  -OEChem-02061913062D

 10 10  0     0  0  0  0  0  0999 V2000
    5.1350    1.4400    0.0000 O   0  0  0  0  0  0  0  0  0  0  0  0
    3.4030    1.4400    0.0000 O   0  0  0  0  0  0  0  0  0  0  0  0
    2.5369   -0.0600    0.0000 N   0  0  0  0  0  0  0  0  0  0  0  0
    4.2690   -0.0600    0.0000 C   0  0  0  0  0  0  0  0  0  0  0  0
    3.4030   -0.5600    0.0000 C   0  0  0  0  0  0  0  0  0  0  0  0
    5.1350   -0.5600    0.0000 C   0  0  0  0  0  0  0  0  0  0  0  0
    3.4030   -1.5600    0.0000 C   0  0  0  0  0  0  0  0  0  0  0  0
    5.1350   -1.5600    0.0000 C   0  0  0  0  0  0  0  0  0  0  0  0
    4.2690   -2.0600    0.0000 C   0  0  0  0  0  0  0  0  0  0  0  0
    4.2690    0.9400    0.0000 C   0  0  0  0  0  0  0  0  0  0  0  0
  1 10  1  0  0  0  0
  2 10  2  0  0  0  0
  3  5  1  0  0  0  0
  4  5  1  0  0  0  0
  4  6  2  0  0  0  0
  4 10  1  0  0  0  0
  5  7  2  0  0  0  0
  6  8  1  0  0  0  0
  7  9  1  0  0  0  0
  8  9  2  0  0  0  0
M  END
> <PUBCHEM_COMPOUND_CID>
227

> <PUBCHEM_COMPOUND_CANONICALIZED>
1

> <PUBCHEM_CACTVS_COMPLEXITY>
136

> <PUBCHEM_CACTVS_HBOND_ACCEPTOR>
3

> <PUBCHEM_CACTVS_HBOND_DONOR>
2

> <PUBCHEM_CACTVS_ROTATABLE_BOND>
1

> <PUBCHEM_CACTVS_SUBSKEYS>
AAADcYBiMAAAAAAAAAAAAAAAAAAAAAAAAAAwAAAAAAAAAAABAAAAHgAQCAAADAiBmAAwyIBAAgCIAiTSSACCAAAkAgAIiAEAbMgIJjqAlZGAcYBm0AEI2ceYyCCOAAAAAAACAAAAAAAAAAQAAAAAAAAAAA==

> <PUBCHEM_IUPAC_OPENEYE_NAME>
2-aminobenzoic acid

> <PUBCHEM_IUPAC_CAS_NAME>
2-aminobenzoic acid

> <PUBCHEM_IUPAC_NAME>
2-aminobenzoic acid

> <PUBCHEM_IUPAC_SYSTEMATIC_NAME>
2-azanylbenzoic acid

> <PUBCHEM_IUPAC_TRADITIONAL_NAME>
anthranilic acid

> <PUBCHEM_IUPAC_INCHI>
InChI=1S/C7H7NO2/c8-6-4-2-1-3-5(6)7(9)10/h1-4H,8H2,(H,9,10)

> <PUBCHEM_IUPAC_INCHIKEY>
RWZYAGGXGHYGMB-UHFFFAOYSA-N

> <PUBCHEM_XLOGP3>
1.2

> <PUBCHEM_EXACT_MASS>
137.048

> <PUBCHEM_MOLECULAR_FORMULA>
C7H7NO2

> <PUBCHEM_MOLECULAR_WEIGHT>
137.138

> <PUBCHEM_OPENEYE_CAN_SMILES>
C1=CC=C(C(=C1)C(=O)O)N

> <PUBCHEM_OPENEYE_ISO_SMILES>
C1=CC=C(C(=C1)C(=O)O)N

> <PUBCHEM_CACTVS_TPSA>
63.3

> <PUBCHEM_MONOISOTOPIC_WEIGHT>
137.048

> <PUBCHEM_TOTAL_CHARGE>
0

> <PUBCHEM_HEAVY_ATOM_COUNT>
10

> <PUBCHEM_ATOM_DEF_STEREO_COUNT>
0

> <PUBCHEM_ATOM_UDEF_STEREO_COUNT>
0

> <PUBCHEM_BOND_DEF_STEREO_COUNT>
0

> <PUBCHEM_BOND_UDEF_STEREO_COUNT>
0

> <PUBCHEM_ISOTOPIC_ATOM_COUNT>
0

> <PUBCHEM_COMPONENT_COUNT>
1

> <PUBCHEM_CACTVS_TAUTO_COUNT>
-1

> <PUBCHEM_COORDINATE_TYPE>
1
5
255

> <PUBCHEM_BONDANNOTATIONS>
4  5  8
4  6  8
5  7  8
6  8  8
7  9  8
8  9  8

$$$$
6654
  -OEChem-02061913062D

 10 11  0     1  0  0  0  0  0999 V2000
    5.4490   -0.0329    0.0000 C   0  0  0  0  0  0  0  0  0  0  0  0
    4.3089    0.9242    0.0000 C   0  0  3  0  0  0  0  0  0  0  0  0
    4.0501   -0.0417    0.0000 C   0  0  3  0  0  0  0  0  0  0  0  0
    3.5723    1.9068    0.0000 C   0  0  0  0  0  0  0  0  0  0  0  0
    2.2756    0.6130    0.0000 C   0  0  0  0  0  0  0  0  0  0  0  0
    2.8290   -0.9074    0.0000 C   0  0  0  0  0  0  0  0  0  0  0  0
    5.9490   -0.8990    0.0000 C   0  0  0  0  0  0  0  0  0  0  0  0
    6.3150    0.4671    0.0000 C   0  0  0  0  0  0  0  0  0  0  0  0
    2.0000   -0.3482    0.0000 C   0  0  0  0  0  0  0  0  0  0  0  0
    2.8639   -1.9068    0.0000 C   0  0  0  0  0  0  0  0  0  0  0  0
  1  2  1  0  0  0  0
  1  3  1  0  0  0  0
  1  7  1  0  0  0  0
  1  8  1  0  0  0  0
  2  4  1  0  0  0  0
  2  5  1  0  0  0  0
  3  4  1  0  0  0  0
  3  6  1  0  0  0  0
  5  9  1  0  0  0  0
  6  9  2  0  0  0  0
  6 10  1  0  0  0  0
M  END
> <PUBCHEM_COMPOUND_CID>
6654

> <PUBCHEM_COMPOUND_CANONICALIZED>
1

> <PUBCHEM_CACTVS_COMPLEXITY>
186

> <PUBCHEM_CACTVS_HBOND_ACCEPTOR>
0

> <PUBCHEM_CACTVS_HBOND_DONOR>
0

> <PUBCHEM_CACTVS_ROTATABLE_BOND>
0

> <PUBCHEM_CACTVS_SUBSKEYS>
AAADceBwAAAAAAAAAAAAAAAAAABgAAAAAAAgQAAAAAAAAAAAAAAAGAAAAAAADwCAAAACAAAAAACAAiBCAAAAAAAgAAAACAAAAAgAAAIAAQAAAAAAgAAIAAMAgEAPgAAAAAAAAAAAAAAAAAAAAAAAAAAAAA==

> <PUBCHEM_IUPAC_OPENEYE_NAME>
2,6,6-trimethylbicyclo[3.1.1]hept-2-ene

> <PUBCHEM_IUPAC_CAS_NAME>
2,6,6-trimethylbicyclo[3.1.1]hept-2-ene

> <PUBCHEM_IUPAC_NAME>
2,6,6-trimethylbicyclo[3.1.1]hept-2-ene

> <PUBCHEM_IUPAC_SYSTEMATIC_NAME>
2,6,6-trimethylbicyclo[3.1.1]hept-2-ene

> <PUBCHEM_IUPAC_TRADITIONAL_NAME>
2,6,6-trimethylbicyclo[3.1.1]hept-2-ene

> <PUBCHEM_IUPAC_INCHI>
InChI=1S/C10H16/c1-7-4-5-8-6-9(7)10(8,2)3/h4,8-9H,5-6H2,1-3H3

> <PUBCHEM_IUPAC_INCHIKEY>
GRWFGVWFFZKLTI-UHFFFAOYSA-N

> <PUBCHEM_XLOGP3_AA>
2.8

> <PUBCHEM_EXACT_MASS>
136.125

> <PUBCHEM_MOLECULAR_FORMULA>
C10H16

> <PUBCHEM_MOLECULAR_WEIGHT>
136.238

> <PUBCHEM_OPENEYE_CAN_SMILES>
CC1=CCC2CC1C2(C)C

> <PUBCHEM_OPENEYE_ISO_SMILES>
CC1=CCC2CC1C2(C)C

> <PUBCHEM_CACTVS_TPSA>
0

> <PUBCHEM_MONOISOTOPIC_WEIGHT>
136.125

> <PUBCHEM_TOTAL_CHARGE>
0

> <PUBCHEM_HEAVY_ATOM_COUNT>
10

> <PUBCHEM_ATOM_DEF_STEREO_COUNT>
0

> <PUBCHEM_ATOM_UDEF_STEREO_COUNT>
2

> <PUBCHEM_BOND_DEF_STEREO_COUNT>
0

> <PUBCHEM_BOND_UDEF_STEREO_COUNT>
0

> <PUBCHEM_ISOTOPIC_ATOM_COUNT>
0

> <PUBCHEM_COMPONENT_COUNT>
1

> <PUBCHEM_CACTVS_TAUTO_COUNT>
-1

> <PUBCHEM_COORDINATE_TYPE>
1
5
255

> <PUBCHEM_BONDANNOTATIONS>
2  11  3
3  12  3

$$$$
3293
  -OEChem-02061913062D

 16 17  0     0  0  0  0  0  0999 V2000
    3.7320    0.8342    0.0000 O   0  0  0  0  0  0  0  0  0  0  0  0
    7.2622   -1.1900    0.0000 N   0  0  0  0  0  0  0  0  0  0  0  0
    8.1282   -0.6900    0.0000 C   0  0  0  0  0  0  0  0  0  0  0  0
    8.1282    0.3100    0.0000 C   0  0  0  0  0  0  0  0  0  0  0  0
    6.3961   -0.6900    0.0000 C   0  0  0  0  0  0  0  0  0  0  0  0
    7.2622    0.8100    0.0000 C   0  0  0  0  0  0  0  0  0  0  0  0
    6.3961    0.3100    0.0000 C   0  0  0  0  0  0  0  0  0  0  0  0
    9.1282   -0.6900    0.0000 C   0  0  0  0  0  0  0  0  0  0  0  0
    8.6282   -1.5560    0.0000 C   0  0  0  0  0  0  0  0  0  0  0  0
    5.5022    0.8447    0.0000 C   0  0  0  0  0  0  0  0  0  0  0  0
    5.5022   -1.2247    0.0000 C   0  0  0  0  0  0  0  0  0  0  0  0
    7.2622    1.8100    0.0000 C   0  0  0  0  0  0  0  0  0  0  0  0
    4.5961    0.3308    0.0000 C   0  0  0  0  0  0  0  0  0  0  0  0
    4.5961   -0.7108    0.0000 C   0  0  0  0  0  0  0  0  0  0  0  0
    2.8641    0.3375    0.0000 C   0  0  0  0  0  0  0  0  0  0  0  0
    2.0000    0.8408    0.0000 C   0  0  0  0  0  0  0  0  0  0  0  0
  1 13  1  0  0  0  0
  1 15  1  0  0  0  0
  2  3  1  0  0  0  0
  2  5  1  0  0  0  0
  3  4  1  0  0  0  0
  3  8  1  0  0  0  0
  3  9  1  0  0  0  0
  4  6  2  0  0  0  0
  5  7  2  0  0  0  0
  5 11  1  0  0  0  0
  6  7  1  0  0  0  0
  6 12  1  0  0  0  0
  7 10  1  0  0  0  0
 10 13  2  0  0  0  0
 11 14  2  0  0  0  0
 13 14  1  0  0  0  0
 15 16  1  0  0  0  0
M  END
> <PUBCHEM_COMPOUND_CID>
3293

> <PUBCHEM_COMPOUND_CANONICALIZED>
1

> <PUBCHEM_CACTVS_COMPLEXITY>
283

> <PUBCHEM_CACTVS_HBOND_ACCEPTOR>
2

> <PUBCHEM_CACTVS_HBOND_DONOR>
1

> <PUBCHEM_CACTVS_ROTATABLE_BOND>
2

> <PUBCHEM_CACTVS_SUBSKEYS>
AAADceByIAAAAAAAAAAAAAAAAAAAAAAAAAAwQAAAAAAAAACBAAAAHgAQAAAADIyhmAIyxoLABACAAiRCQACCCAAhIgAIiAAGbIgMJiLEsZuGOCjk0BHI6AewwLAOAEABAAACAAAAgAIAAAQAAAAAAAAAAA==

> <PUBCHEM_IUPAC_OPENEYE_NAME>
6-ethoxy-2,2,4-trimethyl-1~{H}-quinoline

> <PUBCHEM_IUPAC_CAS_NAME>
6-ethoxy-2,2,4-trimethyl-1~{H}-quinoline

> <PUBCHEM_IUPAC_NAME>
6-ethoxy-2,2,4-trimethyl-1~{H}-quinoline

> <PUBCHEM_IUPAC_SYSTEMATIC_NAME>
6-ethoxy-2,2,4-trimethyl-1~{H}-quinoline

> <PUBCHEM_IUPAC_TRADITIONAL_NAME>
6-ethoxy-2,2,4-trimethyl-1~{H}-quinoline

> <PUBCHEM_IUPAC_INCHI>
InChI=1S/C14H19NO/c1-5-16-11-6-7-13-12(8-11)10(2)9-14(3,4)15-13/h6-9,15H,5H2,1-4H3

> <PUBCHEM_IUPAC_INCHIKEY>
DECIPOUIJURFOJ-UHFFFAOYSA-N

> <PUBCHEM_XLOGP3_AA>
3.1

> <PUBCHEM_EXACT_MASS>
217.147

> <PUBCHEM_MOLECULAR_FORMULA>
C14H19NO

> <PUBCHEM_MOLECULAR_WEIGHT>
217.312

> <PUBCHEM_OPENEYE_CAN_SMILES>
CCOC1=CC2=C(C=C1)NC(C=C2C)(C)C

> <PUBCHEM_OPENEYE_ISO_SMILES>
CCOC1=CC2=C(C=C1)NC(C=C2C)(C)C

> <PUBCHEM_CACTVS_TPSA>
21.3

> <PUBCHEM_MONOISOTOPIC_WEIGHT>
217.147

> <PUBCHEM_TOTAL_CHARGE>
0

> <PUBCHEM_HEAVY_ATOM_COUNT>
16

> <PUBCHEM_ATOM_DEF_STEREO_COUNT>
0

> <PUBCHEM_ATOM_UDEF_STEREO_COUNT>
0

> <PUBCHEM_BOND_DEF_STEREO_COUNT>
0

> <PUBCHEM_BOND_UDEF_STEREO_COUNT>
0

> <PUBCHEM_ISOTOPIC_ATOM_COUNT>
0

> <PUBCHEM_COMPONENT_COUNT>
1

> <PUBCHEM_CACTVS_TAUTO_COUNT>
-1

> <PUBCHEM_COORDINATE_TYPE>
1
5
255

> <PUBCHEM_BONDANNOTATIONS>
10  13  8
11  14  8
13  14  8
5  11  8
5  7  8
7  10  8

$$$$
24685
  -OEChem-02061913072D

 13 13  0     0  0  0  0  0  0999 V2000
    3.7320    1.5000    0.0000 O   0  0  0  0  0  0  0  0  0  0  0  0
    4.5981    0.0000    0.0000 O   0  0  0  0  0  0  0  0  0  0  0  0
    2.8660    0.0000    0.0000 N   0  0  0  0  0  0  0  0  0  0  0  0
    4.5981    2.0000    0.0000 C   0  0  0  0  0  0  0  0  0  0  0  0
    4.5981    3.0000    0.0000 C   0  0  0  0  0  0  0  0  0  0  0  0
    5.4641    1.5000    0.0000 C   0  0  0  0  0  0  0  0  0  0  0  0
    2.8660   -1.0000    0.0000 C   0  0  0  0  0  0  0  0  0  0  0  0
    3.7320    0.5000    0.0000 C   0  0  0  0  0  0  0  0  0  0  0  0
    2.0000   -1.5000    0.0000 C   0  0  0  0  0  0  0  0  0  0  0  0
    3.7320   -1.5000    0.0000 C   0  0  0  0  0  0  0  0  0  0  0  0
    2.0000   -2.5000    0.0000 C   0  0  0  0  0  0  0  0  0  0  0  0
    3.7320   -2.5000    0.0000 C   0  0  0  0  0  0  0  0  0  0  0  0
    2.8660   -3.0000    0.0000 C   0  0  0  0  0  0  0  0  0  0  0  0
  1  4  1  0  0  0  0
  1  8  1  0  0  0  0
  2  8  2  0  0  0  0
  3  7  1  0  0  0  0
  3  8  1  0  0  0  0
  4  5  1  0  0  0  0
  4  6  1  0  0  0  0
  7  9  2  0  0  0  0
  7 10  1  0  0  0  0
  9 11  1  0  0  0  0
 10 12  2  0  0  0  0
 11 13  2  0  0  0  0
 12 13  1  0  0  0  0
M  END
> <PUBCHEM_COMPOUND_CID>
24685

> <PUBCHEM_COMPOUND_CANONICALIZED>
1

> <PUBCHEM_CACTVS_COMPLEXITY>
162

> <PUBCHEM_CACTVS_HBOND_ACCEPTOR>
2

> <PUBCHEM_CACTVS_HBOND_DONOR>
1

> <PUBCHEM_CACTVS_ROTATABLE_BOND>
3

> <PUBCHEM_CACTVS_SUBSKEYS>
AAADccByMAAAAAAAAAAAAAAAAAAAAAAAAAAwAAAAAAAAAAABAAAAHgAQAAAACByhkAIyyILABACIACRCWACCAAAhAgAIiAAAZIkIICLAkZGMIAhglABIyAcQAAAAAAAAAAAAAAAAAAAAAAAAAAAAAAAAAA==

> <PUBCHEM_IUPAC_OPENEYE_NAME>
isopropyl ~{N}-phenylcarbamate

> <PUBCHEM_IUPAC_CAS_NAME>
~{N}-phenylcarbamic acid propan-2-yl ester

> <PUBCHEM_IUPAC_NAME>
propan-2-yl ~{N}-phenylcarbamate

> <PUBCHEM_IUPAC_SYSTEMATIC_NAME>
propan-2-yl ~{N}-phenylcarbamate

> <PUBCHEM_IUPAC_TRADITIONAL_NAME>
~{N}-phenylcarbamic acid isopropyl ester

> <PUBCHEM_IUPAC_INCHI>
InChI=1S/C10H13NO2/c1-8(2)13-10(12)11-9-6-4-3-5-7-9/h3-8H,1-2H3,(H,11,12)

> <PUBCHEM_IUPAC_INCHIKEY>
VXPLXMJHHKHSOA-UHFFFAOYSA-N

> <PUBCHEM_XLOGP3>
2.6

> <PUBCHEM_EXACT_MASS>
179.095

> <PUBCHEM_MOLECULAR_FORMULA>
C10H13NO2

> <PUBCHEM_MOLECULAR_WEIGHT>
179.219

> <PUBCHEM_OPENEYE_CAN_SMILES>
CC(C)OC(=O)NC1=CC=CC=C1

> <PUBCHEM_OPENEYE_ISO_SMILES>
CC(C)OC(=O)NC1=CC=CC=C1

> <PUBCHEM_CACTVS_TPSA>
38.3

> <PUBCHEM_MONOISOTOPIC_WEIGHT>
179.095

> <PUBCHEM_TOTAL_CHARGE>
0

> <PUBCHEM_HEAVY_ATOM_COUNT>
13

> <PUBCHEM_ATOM_DEF_STEREO_COUNT>
0

> <PUBCHEM_ATOM_UDEF_STEREO_COUNT>
0

> <PUBCHEM_BOND_DEF_STEREO_COUNT>
0

> <PUBCHEM_BOND_UDEF_STEREO_COUNT>
0

> <PUBCHEM_ISOTOPIC_ATOM_COUNT>
0

> <PUBCHEM_COMPONENT_COUNT>
1

> <PUBCHEM_CACTVS_TAUTO_COUNT>
-1

> <PUBCHEM_COORDINATE_TYPE>
1
5
255

> <PUBCHEM_BONDANNOTATIONS>
10  12  8
11  13  8
12  13  8
7  10  8
7  9  8
9  11  8

$$$$
71299657
  -OEChem-02061914432D

 29 31  0     1  0  0  0  0  0999 V2000
    5.4641   -4.8465    0.0000 O   0  0  0  0  0  0  0  0  0  0  0  0
    3.7320    1.1535    0.0000 C   0  0  3  0  0  0  0  0  0  0  0  0
    4.6783    1.4582    0.0000 C   0  0  3  0  0  0  0  0  0  0  0  0
    3.7320    0.1535    0.0000 C   0  0  3  0  0  0  0  0  0  0  0  0
    5.2619    0.6535    0.0000 C   0  0  0  0  0  0  0  0  0  0  0  0
    4.6783   -0.1512    0.0000 C   0  0  0  0  0  0  0  0  0  0  0  0
    2.8660    1.6535    0.0000 C   0  0  0  0  0  0  0  0  0  0  0  0
    4.9889    2.4087    0.0000 C   0  0  3  0  0  0  0  0  0  0  0  0
    2.8660   -0.3465    0.0000 C   0  0  0  0  0  0  0  0  0  0  0  0
    3.7320    2.1535    0.0000 C   0  0  0  0  0  0  0  0  0  0  0  0
    2.0000    1.1535    0.0000 C   0  0  0  0  0  0  0  0  0  0  0  0
    2.0000    0.1535    0.0000 C   0  0  0  0  0  0  0  0  0  0  0  0
    4.3211    3.1530    0.0000 C   0  0  0  0  0  0  0  0  0  0  0  0
    5.9674    2.6150    0.0000 C   0  0  0  0  0  0  0  0  0  0  0  0
    2.8660   -1.3465    0.0000 C   0  0  0  0  0  0  0  0  0  0  0  0
    6.2781    3.5655    0.0000 C   0  0  0  0  0  0  0  0  0  0  0  0
    3.7320   -1.8465    0.0000 C   0  0  0  0  0  0  0  0  0  0  0  0
    7.2566    3.7717    0.0000 C   0  0  3  0  0  0  0  0  0  0  0  0
    3.7320   -2.8465    0.0000 C   0  0  0  0  0  0  0  0  0  0  0  0
    7.5673    4.7222    0.0000 C   0  0  0  0  0  0  0  0  0  0  0  0
    4.5981   -3.3465    0.0000 C   0  0  0  0  0  0  0  0  0  0  0  0
    7.9244    3.0274    0.0000 C   0  0  0  0  0  0  0  0  0  0  0  0
    2.8660   -3.3465    0.0000 C   0  0  0  0  0  0  0  0  0  0  0  0
    4.5981   -4.3465    0.0000 C   0  0  3  0  0  0  0  0  0  0  0  0
    2.8660   -4.3465    0.0000 C   0  0  0  0  0  0  0  0  0  0  0  0
    3.7320   -4.8465    0.0000 C   0  0  0  0  0  0  0  0  0  0  0  0
    8.5458    4.9284    0.0000 C   0  0  0  0  0  0  0  0  0  0  0  0
    6.8994    5.4665    0.0000 C   0  0  0  0  0  0  0  0  0  0  0  0
    2.0000   -2.8465    0.0000 C   0  0  0  0  0  0  0  0  0  0  0  0
  1 24  1  0  0  0  0
  2  3  1  0  0  0  0
  2  4  1  0  0  0  0
  2  7  1  0  0  0  0
  2 10  1  0  0  0  0
  3  5  1  0  0  0  0
  3  8  1  0  0  0  0
  4  6  1  0  0  0  0
  4  9  1  0  0  0  0
  5  6  1  0  0  0  0
  7 11  1  0  0  0  0
  8 13  1  0  0  0  0
  8 14  1  0  0  0  0
  9 12  1  0  0  0  0
  9 15  2  0  0  0  0
 11 12  1  0  0  0  0
 14 16  2  0  0  0  0
 15 17  1  0  0  0  0
 16 18  1  0  0  0  0
 17 19  2  0  0  0  0
 18 20  1  0  0  0  0
 18 22  1  0  0  0  0
 19 21  1  0  0  0  0
 19 23  1  0  0  0  0
 20 27  1  0  0  0  0
 20 28  1  0  0  0  0
 21 24  1  0  0  0  0
 23 25  1  0  0  0  0
 23 29  2  0  0  0  0
 24 26  1  0  0  0  0
 25 26  1  0  0  0  0
M  END
> <PUBCHEM_COMPOUND_CID>
71299657

> <PUBCHEM_COMPOUND_CANONICALIZED>
1

> <PUBCHEM_CACTVS_COMPLEXITY>
678

> <PUBCHEM_CACTVS_HBOND_ACCEPTOR>
1

> <PUBCHEM_CACTVS_HBOND_DONOR>
1

> <PUBCHEM_CACTVS_ROTATABLE_BOND>
5

> <PUBCHEM_CACTVS_SUBSKEYS>
AAADcfB4IAAAAAAAAAAAAAAAAAAAAYAAAAAwYAAAAAAAAGAAAAAAGgAACAAADxSggAICAAAAAgCAAiBCAAAAAAAgAAAICAAAAAgIEAIAAQAAQAAEwAAIgAOAwMAPgAAAAAAAAAAAAAAAACAAAQAACAAAAA==

> <PUBCHEM_IUPAC_OPENEYE_NAME>
(3~{Z})-3-[(2~{Z})-2-[7~{a}-methyl-1-[(~{E})-1,4,5-trimethylhex-2-enyl]-2,3,3~{a},5,6,7-hexahydro-1~{H}-inden-4-ylidene]ethylidene]-4-methylene-cyclohexanol

> <PUBCHEM_IUPAC_CAS_NAME>
(3~{Z})-3-[(2~{Z})-2-[1-[(~{E})-5,6-dimethylhept-3-en-2-yl]-7~{a}-methyl-2,3,3~{a},5,6,7-hexahydro-1~{H}-inden-4-ylidene]ethylidene]-4-methylene-1-cyclohexanol

> <PUBCHEM_IUPAC_NAME>
(3~{Z})-3-[(2~{Z})-2-[1-[(~{E})-5,6-dimethylhept-3-en-2-yl]-7~{a}-methyl-2,3,3~{a},5,6,7-hexahydro-1~{H}-inden-4-ylidene]ethylidene]-4-methylidenecyclohexan-1-ol

> <PUBCHEM_IUPAC_SYSTEMATIC_NAME>
(3~{Z})-3-[(2~{Z})-2-[1-[(~{E})-5,6-dimethylhept-3-en-2-yl]-7~{a}-methyl-2,3,3~{a},5,6,7-hexahydro-1~{H}-inden-4-ylidene]ethylidene]-4-methylidene-cyclohexan-1-ol

> <PUBCHEM_IUPAC_TRADITIONAL_NAME>
(3~{Z})-3-[(2~{Z})-2-[7~{a}-methyl-1-[(~{E})-1,4,5-trimethylhex-2-enyl]-2,3,3~{a},5,6,7-hexahydro-1~{H}-inden-4-ylidene]ethylidene]-4-methylene-cyclohexanol

> <PUBCHEM_IUPAC_INCHI>
InChI=1S/C28H44O/c1-19(2)20(3)9-10-22(5)26-15-16-27-23(8-7-17-28(26,27)6)12-13-24-18-25(29)14-11-21(24)4/h9-10,12-13,19-20,22,25-27,29H,4,7-8,11,14-18H2,1-3,5-6H3/b10-9+,23-12-,24-13-

> <PUBCHEM_IUPAC_INCHIKEY>
MECHNRXZTMCUDQ-DQOHKZOFSA-N

> <PUBCHEM_XLOGP3_AA>
7.4

> <PUBCHEM_EXACT_MASS>
396.339

> <PUBCHEM_MOLECULAR_FORMULA>
C28H44O

> <PUBCHEM_MOLECULAR_WEIGHT>
396.659

> <PUBCHEM_OPENEYE_CAN_SMILES>
CC(C)C(C)C=CC(C)C1CCC2C1(CCCC2=CC=C3CC(CCC3=C)O)C

> <PUBCHEM_OPENEYE_ISO_SMILES>
CC(C)C(C)/C=C/C(C)C1CCC\2C1(CCC/C2=C/C=C\3/CC(CCC3=C)O)C

> <PUBCHEM_CACTVS_TPSA>
20.2

> <PUBCHEM_MONOISOTOPIC_WEIGHT>
396.339

> <PUBCHEM_TOTAL_CHARGE>
0

> <PUBCHEM_HEAVY_ATOM_COUNT>
29

> <PUBCHEM_ATOM_DEF_STEREO_COUNT>
0

> <PUBCHEM_ATOM_UDEF_STEREO_COUNT>
6

> <PUBCHEM_BOND_DEF_STEREO_COUNT>
3

> <PUBCHEM_BOND_UDEF_STEREO_COUNT>
0

> <PUBCHEM_ISOTOPIC_ATOM_COUNT>
0

> <PUBCHEM_COMPONENT_COUNT>
1

> <PUBCHEM_CACTVS_TAUTO_COUNT>
-1

> <PUBCHEM_COORDINATE_TYPE>
1
5
255

> <PUBCHEM_BONDANNOTATIONS>
24  1  3
18  22  3
2  10  3
3  5  3
4  6  3
8  13  3

$$$$
9543187
  -OEChem-02061913452D

 11 12  0     1  0  0  0  0  0999 V2000
    5.6137   -2.1590    0.0000 O   0  0  0  0  0  0  0  0  0  0  0  0
    3.2369    1.1644    0.0000 C   0  0  0  0  0  0  0  0  0  0  0  0
    3.7147   -0.7841    0.0000 C   0  0  1  0  0  0  0  0  0  0  0  0
    3.9735    0.1818    0.0000 C   0  0  3  0  0  0  0  0  0  0  0  0
    2.3420   -1.3761    0.0000 C   0  0  0  0  0  0  0  0  0  0  0  0
    2.0000   -0.4364    0.0000 C   0  0  0  0  0  0  0  0  0  0  0  0
    5.3725   -0.3270    0.0000 C   0  0  0  0  0  0  0  0  0  0  0  0
    5.1137   -1.2929    0.0000 C   0  0  0  0  0  0  0  0  0  0  0  0
    3.3415    2.1590    0.0000 C   0  0  0  0  0  0  0  0  0  0  0  0
    2.3234    1.5712    0.0000 C   0  0  0  0  0  0  0  0  0  0  0  0
    3.4559   -1.7500    0.0000 C   0  0  0  0  0  0  0  0  0  0  0  0
  1  8  2  0  0  0  0
  2  3  1  0  0  0  0
  2  4  1  0  0  0  0
  2  9  1  0  0  0  0
  2 10  1  0  0  0  0
  3  5  1  0  0  0  0
  3  8  1  0  0  0  0
  3 11  1  1  0  0  0
  4  6  1  0  0  0  0
  4  7  1  0  0  0  0
  5  6  1  0  0  0  0
  7  8  1  0  0  0  0
M  END
> <PUBCHEM_COMPOUND_CID>
9543187

> <PUBCHEM_COMPOUND_CANONICALIZED>
1

> <PUBCHEM_CACTVS_COMPLEXITY>
217

> <PUBCHEM_CACTVS_HBOND_ACCEPTOR>
1

> <PUBCHEM_CACTVS_HBOND_DONOR>
0

> <PUBCHEM_CACTVS_ROTATABLE_BOND>
0

> <PUBCHEM_CACTVS_SUBSKEYS>
AAADceBwIAAAAAAAAAAAAAAAAAAAAYMAAAAwAAAAAAAAAAAAAAAAGgAAAAAADwSAgAACAAAAAAAIAIAQAAAAAAAAAAAAAAEAAAAAABIAAAAAAAAAAAAAAAEIiMCPgAAAAAAAAACAAAAAAAAAAQAACAAAAA==

> <PUBCHEM_IUPAC_OPENEYE_NAME>
(1~{R})-1,7,7-trimethylnorbornan-2-one

> <PUBCHEM_IUPAC_CAS_NAME>
(1~{R})-1,7,7-trimethyl-2-bicyclo[2.2.1]heptanone

> <PUBCHEM_IUPAC_NAME>
(1~{R})-1,7,7-trimethylbicyclo[2.2.1]heptan-2-one

> <PUBCHEM_IUPAC_SYSTEMATIC_NAME>
(1~{R})-1,7,7-trimethylbicyclo[2.2.1]heptan-2-one

> <PUBCHEM_IUPAC_TRADITIONAL_NAME>
(1~{R})-1,7,7-trimethylnorbornan-2-one

> <PUBCHEM_IUPAC_INCHI>
InChI=1S/C10H16O/c1-9(2)7-4-5-10(9,3)8(11)6-7/h7H,4-6H2,1-3H3/t7?,10-/m0/s1

> <PUBCHEM_IUPAC_INCHIKEY>
DSSYKIVIOFKYAU-MHPPCMCBSA-N

> <PUBCHEM_XLOGP3_AA>
2.2

> <PUBCHEM_EXACT_MASS>
152.12

> <PUBCHEM_MOLECULAR_FORMULA>
C10H16O

> <PUBCHEM_MOLECULAR_WEIGHT>
152.237

> <PUBCHEM_OPENEYE_CAN_SMILES>
CC1(C2CCC1(C(=O)C2)C)C

> <PUBCHEM_OPENEYE_ISO_SMILES>
C[C@@]12CCC(C1(C)C)CC2=O

> <PUBCHEM_CACTVS_TPSA>
17.1

> <PUBCHEM_MONOISOTOPIC_WEIGHT>
152.12

> <PUBCHEM_TOTAL_CHARGE>
0

> <PUBCHEM_HEAVY_ATOM_COUNT>
11

> <PUBCHEM_ATOM_DEF_STEREO_COUNT>
1

> <PUBCHEM_ATOM_UDEF_STEREO_COUNT>
1

> <PUBCHEM_BOND_DEF_STEREO_COUNT>
0

> <PUBCHEM_BOND_UDEF_STEREO_COUNT>
0

> <PUBCHEM_ISOTOPIC_ATOM_COUNT>
0

> <PUBCHEM_COMPONENT_COUNT>
1

> <PUBCHEM_CACTVS_TAUTO_COUNT>
-1

> <PUBCHEM_COORDINATE_TYPE>
1
5
255

> <PUBCHEM_BONDANNOTATIONS>
4  2  3
3  11  5

$$$$
8119
  -OEChem-02061913072D

  7  7  0     0  0  0  0  0  0999 V2000
    3.1235   -0.7853    0.0000 N   0  0  0  0  0  0  0  0  0  0  0  0
    3.6235    1.4053    0.0000 C   0  0  0  0  0  0  0  0  0  0  0  0
    2.6235    1.4053    0.0000 C   0  0  0  0  0  0  0  0  0  0  0  0
    2.0000    0.6235    0.0000 C   0  0  0  0  0  0  0  0  0  0  0  0
    4.2470    0.6235    0.0000 C   0  0  0  0  0  0  0  0  0  0  0  0
    2.2225   -0.3514    0.0000 C   0  0  0  0  0  0  0  0  0  0  0  0
    4.0245   -0.3514    0.0000 C   0  0  0  0  0  0  0  0  0  0  0  0
  1  6  1  0  0  0  0
  1  7  1  0  0  0  0
  2  3  1  0  0  0  0
  2  5  1  0  0  0  0
  3  4  1  0  0  0  0
  4  6  1  0  0  0  0
  5  7  1  0  0  0  0
M  END
> <PUBCHEM_COMPOUND_CID>
8119

> <PUBCHEM_COMPOUND_CANONICALIZED>
1

> <PUBCHEM_CACTVS_COMPLEXITY>
37.4

> <PUBCHEM_CACTVS_HBOND_ACCEPTOR>
1

> <PUBCHEM_CACTVS_HBOND_DONOR>
1

> <PUBCHEM_CACTVS_ROTATABLE_BOND>
0

> <PUBCHEM_CACTVS_SUBSKEYS>
AAADccBiAAAAAAAAAAAAAAAAAAAAAAAAAAAAAAAABYAAAAAAAAAAHAAQAAAACADBAAQAAALAAAAAAAAAAAAAAAAAAAAAAIAIAAAAAAIAgAAEAAAAEACAAAEQAAAAAAAAAAAAAAAAAAAAAAAAAAAAAAAAAA==

> <PUBCHEM_IUPAC_OPENEYE_NAME>
azepane

> <PUBCHEM_IUPAC_CAS_NAME>
azepane

> <PUBCHEM_IUPAC_NAME>
azepane

> <PUBCHEM_IUPAC_SYSTEMATIC_NAME>
azepane

> <PUBCHEM_IUPAC_TRADITIONAL_NAME>
azepane

> <PUBCHEM_IUPAC_INCHI>
InChI=1S/C6H13N/c1-2-4-6-7-5-3-1/h7H,1-6H2

> <PUBCHEM_IUPAC_INCHIKEY>
ZSIQJIWKELUFRJ-UHFFFAOYSA-N

> <PUBCHEM_XLOGP3>
1.2

> <PUBCHEM_EXACT_MASS>
99.105

> <PUBCHEM_MOLECULAR_FORMULA>
C6H13N

> <PUBCHEM_MOLECULAR_WEIGHT>
99.177

> <PUBCHEM_OPENEYE_CAN_SMILES>
C1CCCNCC1

> <PUBCHEM_OPENEYE_ISO_SMILES>
C1CCCNCC1

> <PUBCHEM_CACTVS_TPSA>
12

> <PUBCHEM_MONOISOTOPIC_WEIGHT>
99.105

> <PUBCHEM_TOTAL_CHARGE>
0

> <PUBCHEM_HEAVY_ATOM_COUNT>
7

> <PUBCHEM_ATOM_DEF_STEREO_COUNT>
0

> <PUBCHEM_ATOM_UDEF_STEREO_COUNT>
0

> <PUBCHEM_BOND_DEF_STEREO_COUNT>
0

> <PUBCHEM_BOND_UDEF_STEREO_COUNT>
0

> <PUBCHEM_ISOTOPIC_ATOM_COUNT>
0

> <PUBCHEM_COMPONENT_COUNT>
1

> <PUBCHEM_CACTVS_TAUTO_COUNT>
-1

> <PUBCHEM_COORDINATE_TYPE>
1
5
255

$$$$
89594
  -OEChem-02061913052D

 12 13  0     1  0  0  0  0  0999 V2000
    2.9511    1.3184    0.0000 N   0  0  3  0  0  0  0  0  0  0  0  0
    4.6261   -1.7694    0.0000 N   0  0  0  0  0  0  0  0  0  0  0  0
    3.7601    0.7306    0.0000 C   0  0  1  0  0  0  0  0  0  0  0  0
    4.5691    1.3184    0.0000 C   0  0  0  0  0  0  0  0  0  0  0  0
    4.2601    2.2694    0.0000 C   0  0  0  0  0  0  0  0  0  0  0  0
    3.2601    2.2694    0.0000 C   0  0  0  0  0  0  0  0  0  0  0  0
    3.7601   -0.2694    0.0000 C   0  0  0  0  0  0  0  0  0  0  0  0
    2.0000    1.0094    0.0000 C   0  0  0  0  0  0  0  0  0  0  0  0
    2.8940   -0.7694    0.0000 C   0  0  0  0  0  0  0  0  0  0  0  0
    4.6261   -0.7694    0.0000 C   0  0  0  0  0  0  0  0  0  0  0  0
    2.8940   -1.7694    0.0000 C   0  0  0  0  0  0  0  0  0  0  0  0
    3.7601   -2.2694    0.0000 C   0  0  0  0  0  0  0  0  0  0  0  0
  1  3  1  0  0  0  0
  1  6  1  0  0  0  0
  1  8  1  0  0  0  0
  2 10  1  0  0  0  0
  2 12  2  0  0  0  0
  3  4  1  0  0  0  0
  3  7  1  1  0  0  0
  4  5  1  0  0  0  0
  5  6  1  0  0  0  0
  7  9  1  0  0  0  0
  7 10  2  0  0  0  0
  9 11  2  0  0  0  0
 11 12  1  0  0  0  0
M  END
> <PUBCHEM_COMPOUND_CID>
89594

> <PUBCHEM_COMPOUND_CANONICALIZED>
1

> <PUBCHEM_CACTVS_COMPLEXITY>
147

> <PUBCHEM_CACTVS_HBOND_ACCEPTOR>
2

> <PUBCHEM_CACTVS_HBOND_DONOR>
0

> <PUBCHEM_CACTVS_ROTATABLE_BOND>
1

> <PUBCHEM_CACTVS_SUBSKEYS>
AAADccBzAAAAAAAAAAAAAAAAAAAAAWAAAAAsAAAAAAAAAAABgAAAHAAAAAAADCjBGgQ+gJMIEACgAjBnRACCgCAxAiAI2CA4ZJgIIOLA0ZGEIAhggADIyAcQgIAOAAAAAAAAAAAAAAAAAAAAAAAAAAAAAA==

> <PUBCHEM_IUPAC_OPENEYE_NAME>
3-[(2~{S})-1-methylpyrrolidin-2-yl]pyridine

> <PUBCHEM_IUPAC_CAS_NAME>
3-[(2~{S})-1-methyl-2-pyrrolidinyl]pyridine

> <PUBCHEM_IUPAC_NAME>
3-[(2~{S})-1-methylpyrrolidin-2-yl]pyridine

> <PUBCHEM_IUPAC_SYSTEMATIC_NAME>
3-[(2~{S})-1-methylpyrrolidin-2-yl]pyridine

> <PUBCHEM_IUPAC_TRADITIONAL_NAME>
3-[(2~{S})-1-methylpyrrolidin-2-yl]pyridine

> <PUBCHEM_IUPAC_INCHI>
InChI=1S/C10H14N2/c1-12-7-3-5-10(12)9-4-2-6-11-8-9/h2,4,6,8,10H,3,5,7H2,1H3/t10-/m0/s1

> <PUBCHEM_IUPAC_INCHIKEY>
SNICXCGAKADSCV-JTQLQIEISA-N

> <PUBCHEM_XLOGP3>
1.2

> <PUBCHEM_EXACT_MASS>
162.116

> <PUBCHEM_MOLECULAR_FORMULA>
C10H14N2

> <PUBCHEM_MOLECULAR_WEIGHT>
162.236

> <PUBCHEM_OPENEYE_CAN_SMILES>
CN1CCCC1C2=CN=CC=C2

> <PUBCHEM_OPENEYE_ISO_SMILES>
CN1CCC[C@H]1C2=CN=CC=C2

> <PUBCHEM_CACTVS_TPSA>
16.1

> <PUBCHEM_MONOISOTOPIC_WEIGHT>
162.116

> <PUBCHEM_TOTAL_CHARGE>
0

> <PUBCHEM_HEAVY_ATOM_COUNT>
12

> <PUBCHEM_ATOM_DEF_STEREO_COUNT>
1

> <PUBCHEM_ATOM_UDEF_STEREO_COUNT>
0

> <PUBCHEM_BOND_DEF_STEREO_COUNT>
0

> <PUBCHEM_BOND_UDEF_STEREO_COUNT>
0

> <PUBCHEM_ISOTOPIC_ATOM_COUNT>
0

> <PUBCHEM_COMPONENT_COUNT>
1

> <PUBCHEM_CACTVS_TAUTO_COUNT>
-1

> <PUBCHEM_COORDINATE_TYPE>
1
5
255

> <PUBCHEM_BONDANNOTATIONS>
11  12  8
2  10  8
2  12  8
3  7  5
7  10  8
7  9  8
9  11  8

$$$$
10049
  -OEChem-02061913072D

 11 12  0     1  0  0  0  0  0999 V2000
    2.6176   -2.1937    0.0000 O   0  0  0  0  0  0  0  0  0  0  0  0
    4.4130   -0.6953    0.0000 C   0  0  1  0  0  0  0  0  0  0  0  0
    3.9352    1.2532    0.0000 C   0  0  0  0  0  0  0  0  0  0  0  0
    4.6718    0.2706    0.0000 C   0  0  1  0  0  0  0  0  0  0  0  0
    3.0403   -1.2874    0.0000 C   0  0  1  0  0  0  0  0  0  0  0  0
    5.8119   -1.2042    0.0000 C   0  0  0  0  0  0  0  0  0  0  0  0
    2.6982   -0.3477    0.0000 C   0  0  0  0  0  0  0  0  0  0  0  0
    6.0707   -0.2382    0.0000 C   0  0  0  0  0  0  0  0  0  0  0  0
    4.1541   -1.6613    0.0000 C   0  0  0  0  0  0  0  0  0  0  0  0
    4.0397    2.2477    0.0000 C   0  0  0  0  0  0  0  0  0  0  0  0
    3.0216    1.6599    0.0000 C   0  0  0  0  0  0  0  0  0  0  0  0
  5  1  1  6  0  0  0
  2  3  1  0  0  0  0
  2  5  1  0  0  0  0
  2  6  1  0  0  0  0
  2  9  1  1  0  0  0
  3  4  1  0  0  0  0
  3 10  1  0  0  0  0
  3 11  1  0  0  0  0
  4  7  1  0  0  0  0
  4  8  1  0  0  0  0
  5  7  1  0  0  0  0
  6  8  1  0  0  0  0
M  END
> <PUBCHEM_COMPOUND_CID>
10049

> <PUBCHEM_COMPOUND_CANONICALIZED>
1

> <PUBCHEM_CACTVS_COMPLEXITY>
185

> <PUBCHEM_CACTVS_HBOND_ACCEPTOR>
1

> <PUBCHEM_CACTVS_HBOND_DONOR>
1

> <PUBCHEM_CACTVS_ROTATABLE_BOND>
0

> <PUBCHEM_CACTVS_SUBSKEYS>
AAADceBwIAAAAAAAAAAAAAAAAAAAAYMAAAAwAAAAAAAAAAAAAAAAGgAACAAADxSggAICAAAAAgAAAAAAAAAAAAAAAAAAAAAAAAAAEAIAAAAAQAAEAAAAAAGAwPAPgAAAAAAAAACAAAIAABAAAYAADAAAAA==

> <PUBCHEM_IUPAC_OPENEYE_NAME>
(1~{S},2~{R},4~{R})-1,7,7-trimethylnorbornan-2-ol

> <PUBCHEM_IUPAC_CAS_NAME>
(1~{S},2~{R},4~{R})-1,7,7-trimethyl-2-bicyclo[2.2.1]heptanol

> <PUBCHEM_IUPAC_NAME>
(1~{S},2~{R},4~{R})-1,7,7-trimethylbicyclo[2.2.1]heptan-2-ol

> <PUBCHEM_IUPAC_SYSTEMATIC_NAME>
(1~{S},2~{R},4~{R})-1,7,7-trimethylbicyclo[2.2.1]heptan-2-ol

> <PUBCHEM_IUPAC_TRADITIONAL_NAME>
(1~{S},2~{R},4~{R})-1,7,7-trimethylnorbornan-2-ol

> <PUBCHEM_IUPAC_INCHI>
InChI=1S/C10H18O/c1-9(2)7-4-5-10(9,3)8(11)6-7/h7-8,11H,4-6H2,1-3H3/t7-,8-,10-/m1/s1

> <PUBCHEM_IUPAC_INCHIKEY>
DTGKSKDOIYIVQL-NQMVMOMDSA-N

> <PUBCHEM_XLOGP3>
2.7

> <PUBCHEM_EXACT_MASS>
154.136

> <PUBCHEM_MOLECULAR_FORMULA>
C10H18O

> <PUBCHEM_MOLECULAR_WEIGHT>
154.253

> <PUBCHEM_OPENEYE_CAN_SMILES>
CC1(C2CCC1(C(C2)O)C)C

> <PUBCHEM_OPENEYE_ISO_SMILES>
C[C@]12CC[C@@H](C1(C)C)C[C@H]2O

> <PUBCHEM_CACTVS_TPSA>
20.2

> <PUBCHEM_MONOISOTOPIC_WEIGHT>
154.136

> <PUBCHEM_TOTAL_CHARGE>
0

> <PUBCHEM_HEAVY_ATOM_COUNT>
11

> <PUBCHEM_ATOM_DEF_STEREO_COUNT>
3

> <PUBCHEM_ATOM_UDEF_STEREO_COUNT>
0

> <PUBCHEM_BOND_DEF_STEREO_COUNT>
0

> <PUBCHEM_BOND_UDEF_STEREO_COUNT>
0

> <PUBCHEM_ISOTOPIC_ATOM_COUNT>
0

> <PUBCHEM_COMPONENT_COUNT>
1

> <PUBCHEM_CACTVS_TAUTO_COUNT>
-1

> <PUBCHEM_COORDINATE_TYPE>
1
5
255

> <PUBCHEM_BONDANNOTATIONS>
5  1  6
2  9  5
4  12  5

$$$$
1140
  -OEChem-02061913062D

  7  7  0     0  0  0  0  0  0999 V2000
    2.8660    0.5000    0.0000 C   0  0  0  0  0  0  0  0  0  0  0  0
    2.0000    0.0000    0.0000 C   0  0  0  0  0  0  0  0  0  0  0  0
    3.7320   -0.0000    0.0000 C   0  0  0  0  0  0  0  0  0  0  0  0
    2.8660    1.5000    0.0000 C   0  0  0  0  0  0  0  0  0  0  0  0
    2.0000   -1.0000    0.0000 C   0  0  0  0  0  0  0  0  0  0  0  0
    3.7320   -1.0000    0.0000 C   0  0  0  0  0  0  0  0  0  0  0  0
    2.8660   -1.5000    0.0000 C   0  0  0  0  0  0  0  0  0  0  0  0
  1  2  2  0  0  0  0
  1  3  1  0  0  0  0
  1  4  1  0  0  0  0
  2  5  1  0  0  0  0
  3  6  2  0  0  0  0
  5  7  2  0  0  0  0
  6  7  1  0  0  0  0
M  END
> <PUBCHEM_COMPOUND_CID>
1140

> <PUBCHEM_COMPOUND_CANONICALIZED>
1

> <PUBCHEM_CACTVS_COMPLEXITY>
42

> <PUBCHEM_CACTVS_HBOND_ACCEPTOR>
0

> <PUBCHEM_CACTVS_HBOND_DONOR>
0

> <PUBCHEM_CACTVS_ROTATABLE_BOND>
0

> <PUBCHEM_CACTVS_SUBSKEYS>
AAADccBgAAAAAAAAAAAAAAAAAAAAAAAAAAAwAAAAAAAAAAABAAAAGAAAAAAADACAGAAyAIAAAACAAiBCAAACAAAgAAAIiAAAAIgIICKAERCAIAAggAAIiAcAgAAOAAAAAAAAAAAAAAAAAAAAAAAAAAAAAA==

> <PUBCHEM_IUPAC_OPENEYE_NAME>
toluene

> <PUBCHEM_IUPAC_CAS_NAME>
toluene

> <PUBCHEM_IUPAC_NAME>
toluene

> <PUBCHEM_IUPAC_SYSTEMATIC_NAME>
methylbenzene

> <PUBCHEM_IUPAC_TRADITIONAL_NAME>
toluene

> <PUBCHEM_IUPAC_INCHI>
InChI=1S/C7H8/c1-7-5-3-2-4-6-7/h2-6H,1H3

> <PUBCHEM_IUPAC_INCHIKEY>
YXFVVABEGXRONW-UHFFFAOYSA-N

> <PUBCHEM_XLOGP3>
2.7

> <PUBCHEM_EXACT_MASS>
92.063

> <PUBCHEM_MOLECULAR_FORMULA>
C7H8

> <PUBCHEM_MOLECULAR_WEIGHT>
92.141

> <PUBCHEM_OPENEYE_CAN_SMILES>
CC1=CC=CC=C1

> <PUBCHEM_OPENEYE_ISO_SMILES>
CC1=CC=CC=C1

> <PUBCHEM_CACTVS_TPSA>
0

> <PUBCHEM_MONOISOTOPIC_WEIGHT>
92.063

> <PUBCHEM_TOTAL_CHARGE>
0

> <PUBCHEM_HEAVY_ATOM_COUNT>
7

> <PUBCHEM_ATOM_DEF_STEREO_COUNT>
0

> <PUBCHEM_ATOM_UDEF_STEREO_COUNT>
0

> <PUBCHEM_BOND_DEF_STEREO_COUNT>
0

> <PUBCHEM_BOND_UDEF_STEREO_COUNT>
0

> <PUBCHEM_ISOTOPIC_ATOM_COUNT>
0

> <PUBCHEM_COMPONENT_COUNT>
1

> <PUBCHEM_CACTVS_TAUTO_COUNT>
-1

> <PUBCHEM_COORDINATE_TYPE>
1
5
255

> <PUBCHEM_BONDANNOTATIONS>
1  2  8
1  3  8
2  5  8
3  6  8
5  7  8
6  7  8

$$$$
5280793
  -OEChem-02061913342D

 29 31  0     1  0  0  0  0  0999 V2000
    2.0000   -4.8465    0.0000 O   0  0  0  0  0  0  0  0  0  0  0  0
    5.4641    1.1535    0.0000 C   0  0  2  0  0  0  0  0  0  0  0  0
    6.4103    1.4582    0.0000 C   0  0  2  0  0  0  0  0  0  0  0  0
    5.4641    0.1535    0.0000 C   0  0  1  0  0  0  0  0  0  0  0  0
    6.9939    0.6535    0.0000 C   0  0  0  0  0  0  0  0  0  0  0  0
    6.4103   -0.1512    0.0000 C   0  0  0  0  0  0  0  0  0  0  0  0
    4.5981    1.6535    0.0000 C   0  0  0  0  0  0  0  0  0  0  0  0
    6.7210    2.4087    0.0000 C   0  0  2  0  0  0  0  0  0  0  0  0
    4.5981   -0.3465    0.0000 C   0  0  0  0  0  0  0  0  0  0  0  0
    5.4641    2.1535    0.0000 C   0  0  0  0  0  0  0  0  0  0  0  0
    3.7320    1.1535    0.0000 C   0  0  0  0  0  0  0  0  0  0  0  0
    3.7320    0.1535    0.0000 C   0  0  0  0  0  0  0  0  0  0  0  0
    6.0531    3.1530    0.0000 C   0  0  0  0  0  0  0  0  0  0  0  0
    7.6995    2.6150    0.0000 C   0  0  0  0  0  0  0  0  0  0  0  0
    4.5981   -1.3465    0.0000 C   0  0  0  0  0  0  0  0  0  0  0  0
    8.0102    3.5655    0.0000 C   0  0  0  0  0  0  0  0  0  0  0  0
    3.7320   -1.8465    0.0000 C   0  0  0  0  0  0  0  0  0  0  0  0
    8.9887    3.7717    0.0000 C   0  0  1  0  0  0  0  0  0  0  0  0
    3.7320   -2.8465    0.0000 C   0  0  0  0  0  0  0  0  0  0  0  0
    9.2993    4.7222    0.0000 C   0  0  0  0  0  0  0  0  0  0  0  0
    2.8660   -3.3465    0.0000 C   0  0  0  0  0  0  0  0  0  0  0  0
    9.6565    3.0274    0.0000 C   0  0  0  0  0  0  0  0  0  0  0  0
    4.5981   -3.3465    0.0000 C   0  0  0  0  0  0  0  0  0  0  0  0
    2.8660   -4.3465    0.0000 C   0  0  2  0  0  0  0  0  0  0  0  0
    4.5981   -4.3465    0.0000 C   0  0  0  0  0  0  0  0  0  0  0  0
    3.7320   -4.8465    0.0000 C   0  0  0  0  0  0  0  0  0  0  0  0
   10.2778    4.9284    0.0000 C   0  0  0  0  0  0  0  0  0  0  0  0
    8.6315    5.4665    0.0000 C   0  0  0  0  0  0  0  0  0  0  0  0
    5.4641   -2.8465    0.0000 C   0  0  0  0  0  0  0  0  0  0  0  0
 24  1  1  6  0  0  0
  2  3  1  0  0  0  0
  2  4  1  0  0  0  0
  2  7  1  0  0  0  0
  2 10  1  1  0  0  0
  3  5  1  0  0  0  0
  3  8  1  0  0  0  0
  4  6  1  0  0  0  0
  4  9  1  0  0  0  0
  5  6  1  0  0  0  0
  7 11  1  0  0  0  0
  8 13  1  6  0  0  0
  8 14  1  0  0  0  0
  9 12  1  0  0  0  0
  9 15  2  0  0  0  0
 11 12  1  0  0  0  0
 14 16  2  0  0  0  0
 15 17  1  0  0  0  0
 16 18  1  0  0  0  0
 17 19  2  0  0  0  0
 18 20  1  0  0  0  0
 18 22  1  1  0  0  0
 19 21  1  0  0  0  0
 19 23  1  0  0  0  0
 20 27  1  0  0  0  0
 20 28  1  0  0  0  0
 21 24  1  0  0  0  0
 23 25  1  0  0  0  0
 23 29  2  0  0  0  0
 24 26  1  0  0  0  0
 25 26  1  0  0  0  0
M  END
> <PUBCHEM_COMPOUND_CID>
5280793

> <PUBCHEM_COMPOUND_CANONICALIZED>
1

> <PUBCHEM_CACTVS_COMPLEXITY>
678

> <PUBCHEM_CACTVS_HBOND_ACCEPTOR>
1

> <PUBCHEM_CACTVS_HBOND_DONOR>
1

> <PUBCHEM_CACTVS_ROTATABLE_BOND>
5

> <PUBCHEM_CACTVS_SUBSKEYS>
AAADcfB4IAAAAAAAAAAAAAAAAAAAAYAAAAAwYAAAAAAAAGAAAAAAGgAACAAADxSggAICAAAAAgCAAiBCAAAAAAAgAAAICAAAAAgIEAIAAQAAQAAEwAAIgAOAwMAPgAAAAAAAAAAAAAAAACAAAQAACAAAAA==

> <PUBCHEM_IUPAC_OPENEYE_NAME>
(1~{S},3~{Z})-3-[(2~{E})-2-[(1~{R},3~{a}~{S},7~{a}~{R})-7~{a}-methyl-1-[(~{E},1~{R},4~{R})-1,4,5-trimethylhex-2-enyl]-2,3,3~{a},5,6,7-hexahydro-1~{H}-inden-4-ylidene]ethylidene]-4-methylene-cyclohexanol

> <PUBCHEM_IUPAC_CAS_NAME>
(1~{S},3~{Z})-3-[(2~{E})-2-[(1~{R},3~{a}~{S},7~{a}~{R})-1-[(~{E},2~{R},5~{R})-5,6-dimethylhept-3-en-2-yl]-7~{a}-methyl-2,3,3~{a},5,6,7-hexahydro-1~{H}-inden-4-ylidene]ethylidene]-4-methylene-1-cyclohexanol

> <PUBCHEM_IUPAC_NAME>
(1~{S},3~{Z})-3-[(2~{E})-2-[(1~{R},3~{a}~{S},7~{a}~{R})-1-[(~{E},2~{R},5~{R})-5,6-dimethylhept-3-en-2-yl]-7~{a}-methyl-2,3,3~{a},5,6,7-hexahydro-1~{H}-inden-4-ylidene]ethylidene]-4-methylidenecyclohexan-1-ol

> <PUBCHEM_IUPAC_SYSTEMATIC_NAME>
(1~{S},3~{Z})-3-[(2~{E})-2-[(1~{R},3~{a}~{S},7~{a}~{R})-1-[(~{E},2~{R},5~{R})-5,6-dimethylhept-3-en-2-yl]-7~{a}-methyl-2,3,3~{a},5,6,7-hexahydro-1~{H}-inden-4-ylidene]ethylidene]-4-methylidene-cyclohexan-1-ol

> <PUBCHEM_IUPAC_TRADITIONAL_NAME>
(1~{S},3~{Z})-3-[(2~{E})-2-[(1~{R},3~{a}~{S},7~{a}~{R})-7~{a}-methyl-1-[(~{E},1~{R},4~{R})-1,4,5-trimethylhex-2-enyl]-2,3,3~{a},5,6,7-hexahydro-1~{H}-inden-4-ylidene]ethylidene]-4-methylene-cyclohexanol

> <PUBCHEM_IUPAC_INCHI>
InChI=1S/C28H44O/c1-19(2)20(3)9-10-22(5)26-15-16-27-23(8-7-17-28(26,27)6)12-13-24-18-25(29)14-11-21(24)4/h9-10,12-13,19-20,22,25-27,29H,4,7-8,11,14-18H2,1-3,5-6H3/b10-9+,23-12+,24-13-/t20-,22+,25-,26+,27-,28+/m0/s1

> <PUBCHEM_IUPAC_INCHIKEY>
MECHNRXZTMCUDQ-RKHKHRCZSA-N

> <PUBCHEM_XLOGP3_AA>
7.4

> <PUBCHEM_EXACT_MASS>
396.339

> <PUBCHEM_MOLECULAR_FORMULA>
C28H44O

> <PUBCHEM_MOLECULAR_WEIGHT>
396.659

> <PUBCHEM_OPENEYE_CAN_SMILES>
CC(C)C(C)C=CC(C)C1CCC2C1(CCCC2=CC=C3CC(CCC3=C)O)C

> <PUBCHEM_OPENEYE_ISO_SMILES>
C[C@H](/C=C/[C@H](C)C(C)C)[C@H]1CC[C@@H]\2[C@@]1(CCC/C2=C\C=C/3\C[C@H](CCC3=C)O)C

> <PUBCHEM_CACTVS_TPSA>
20.2

> <PUBCHEM_MONOISOTOPIC_WEIGHT>
396.339

> <PUBCHEM_TOTAL_CHARGE>
0

> <PUBCHEM_HEAVY_ATOM_COUNT>
29

> <PUBCHEM_ATOM_DEF_STEREO_COUNT>
6

> <PUBCHEM_ATOM_UDEF_STEREO_COUNT>
0

> <PUBCHEM_BOND_DEF_STEREO_COUNT>
3

> <PUBCHEM_BOND_UDEF_STEREO_COUNT>
0

> <PUBCHEM_ISOTOPIC_ATOM_COUNT>
0

> <PUBCHEM_COMPONENT_COUNT>
1

> <PUBCHEM_CACTVS_TAUTO_COUNT>
-1

> <PUBCHEM_COORDINATE_TYPE>
1
5
255

> <PUBCHEM_BONDANNOTATIONS>
24  1  6
18  22  5
2  10  5
3  30  6
4  31  6
8  13  6

$$$$
3036746
  -OEChem-02061913232D

 24 27  0     1  0  0  0  0  0999 V2000
    5.5320    0.3376    0.0000 O   0  0  0  0  0  0  0  0  0  0  0  0
    2.8680   -1.1382    0.0000 O   0  0  0  0  0  0  0  0  0  0  0  0
    7.7389    2.3435    0.0000 N   0  0  3  0  0  0  0  0  0  0  0  0
    6.3981   -3.1624    0.0000 N   0  0  0  0  0  0  0  0  0  0  0  0
    8.2389    1.4774    0.0000 C   0  0  3  0  0  0  0  0  0  0  0  0
    7.2641    0.3376    0.0000 C   0  0  3  0  0  0  0  0  0  0  0  0
    8.2300    0.0788    0.0000 C   0  0  0  0  0  0  0  0  0  0  0  0
    6.1726    1.5638    0.0000 C   0  0  3  0  0  0  0  0  0  0  0  0
    9.4585    2.3310    0.0000 C   0  0  0  0  0  0  0  0  0  0  0  0
    6.2598    2.5600    0.0000 C   0  0  0  0  0  0  0  0  0  0  0  0
    8.9585    3.1970    0.0000 C   0  0  0  0  0  0  0  0  0  0  0  0
    6.3981   -0.1624    0.0000 C   0  0  2  0  0  0  0  0  0  0  0  0
    5.1878    1.3902    0.0000 C   0  0  0  0  0  0  0  0  0  0  0  0
    6.3981   -1.1624    0.0000 C   0  0  0  0  0  0  0  0  0  0  0  0
    4.5450    2.1563    0.0000 C   0  0  0  0  0  0  0  0  0  0  0  0
    5.5320   -1.6624    0.0000 C   0  0  0  0  0  0  0  0  0  0  0  0
    7.2641   -1.6624    0.0000 C   0  0  0  0  0  0  0  0  0  0  0  0
    5.5320   -2.6624    0.0000 C   0  0  0  0  0  0  0  0  0  0  0  0
    4.6381   -1.1277    0.0000 C   0  0  0  0  0  0  0  0  0  0  0  0
    7.2641   -2.6624    0.0000 C   0  0  0  0  0  0  0  0  0  0  0  0
    4.6381   -3.1970    0.0000 C   0  0  0  0  0  0  0  0  0  0  0  0
    3.7320   -1.6415    0.0000 C   0  0  0  0  0  0  0  0  0  0  0  0
    3.7320   -2.6832    0.0000 C   0  0  0  0  0  0  0  0  0  0  0  0
    2.0000   -1.6349    0.0000 C   0  0  0  0  0  0  0  0  0  0  0  0
 12  1  1  6  0  0  0
  2 22  1  0  0  0  0
  2 24  1  0  0  0  0
  3  6  1  0  0  0  0
  3 10  1  0  0  0  0
  3 11  1  0  0  0  0
  4 18  2  0  0  0  0
  4 20  1  0  0  0  0
  5  7  1  0  0  0  0
  5  8  1  0  0  0  0
  5  9  1  0  0  0  0
  6  7  1  0  0  0  0
  6 12  1  0  0  0  0
  8 10  1  0  0  0  0
  8 13  1  0  0  0  0
  9 11  1  0  0  0  0
 12 14  1  0  0  0  0
 13 15  2  0  0  0  0
 14 16  2  0  0  0  0
 14 17  1  0  0  0  0
 16 18  1  0  0  0  0
 16 19  1  0  0  0  0
 17 20  2  0  0  0  0
 18 21  1  0  0  0  0
 19 22  2  0  0  0  0
 21 23  2  0  0  0  0
 22 23  1  0  0  0  0
M  END
> <PUBCHEM_COMPOUND_CID>
3036746

> <PUBCHEM_COMPOUND_CANONICALIZED>
1

> <PUBCHEM_CACTVS_COMPLEXITY>
457

> <PUBCHEM_CACTVS_HBOND_ACCEPTOR>
4

> <PUBCHEM_CACTVS_HBOND_DONOR>
1

> <PUBCHEM_CACTVS_ROTATABLE_BOND>
4

> <PUBCHEM_CACTVS_SUBSKEYS>
AAADceB7MAAAAAAAAAAAAAAAAAAAAAAAAAA8WLFiAAAAAACx8AAAHgAACAAADTzhngY+xvMIFgCgAzRnRACCiCAxIiAI2CA+bJgONuLEsZuEcChkwBHY+Aew4PwOgEABAAACAAAAgAIAAAQAAAAAAAAAAA==

> <PUBCHEM_IUPAC_OPENEYE_NAME>
(~{S})-(6-methoxy-4-quinolyl)-(5-vinylquinuclidin-2-yl)methanol

> <PUBCHEM_IUPAC_CAS_NAME>
(~{S})-(5-ethenyl-1-azabicyclo[2.2.2]octan-2-yl)-(6-methoxy-4-quinolinyl)methanol

> <PUBCHEM_IUPAC_NAME>
(~{S})-(5-ethenyl-1-azabicyclo[2.2.2]octan-2-yl)-(6-methoxyquinolin-4-yl)methanol

> <PUBCHEM_IUPAC_SYSTEMATIC_NAME>
(~{S})-(5-ethenyl-1-azabicyclo[2.2.2]octan-2-yl)-(6-methoxyquinolin-4-yl)methanol

> <PUBCHEM_IUPAC_TRADITIONAL_NAME>
(~{S})-(6-methoxy-4-quinolyl)-(5-vinylquinuclidin-2-yl)methanol

> <PUBCHEM_IUPAC_INCHI>
InChI=1S/C20H24N2O2/c1-3-13-12-22-9-7-14(13)10-19(22)20(23)16-6-8-21-18-5-4-15(24-2)11-17(16)18/h3-6,8,11,13-14,19-20,23H,1,7,9-10,12H2,2H3/t13?,14?,19?,20-/m0/s1

> <PUBCHEM_IUPAC_INCHIKEY>
LOUPRKONTZGTKE-LHFMAAMQSA-N

> <PUBCHEM_XLOGP3>
2.9

> <PUBCHEM_EXACT_MASS>
324.184

> <PUBCHEM_MOLECULAR_FORMULA>
C20H24N2O2

> <PUBCHEM_MOLECULAR_WEIGHT>
324.424

> <PUBCHEM_OPENEYE_CAN_SMILES>
COC1=CC2=C(C=CN=C2C=C1)C(C3CC4CCN3CC4C=C)O

> <PUBCHEM_OPENEYE_ISO_SMILES>
COC1=CC2=C(C=CN=C2C=C1)[C@@H](C3CC4CCN3CC4C=C)O

> <PUBCHEM_CACTVS_TPSA>
45.6

> <PUBCHEM_MONOISOTOPIC_WEIGHT>
324.184

> <PUBCHEM_TOTAL_CHARGE>
0

> <PUBCHEM_HEAVY_ATOM_COUNT>
24

> <PUBCHEM_ATOM_DEF_STEREO_COUNT>
1

> <PUBCHEM_ATOM_UDEF_STEREO_COUNT>
3

> <PUBCHEM_BOND_DEF_STEREO_COUNT>
0

> <PUBCHEM_BOND_UDEF_STEREO_COUNT>
0

> <PUBCHEM_ISOTOPIC_ATOM_COUNT>
0

> <PUBCHEM_COMPONENT_COUNT>
1

> <PUBCHEM_CACTVS_TAUTO_COUNT>
-1

> <PUBCHEM_COORDINATE_TYPE>
1
5
255

> <PUBCHEM_BONDANNOTATIONS>
12  1  6
14  16  8
14  17  8
16  18  8
16  19  8
17  20  8
18  21  8
19  22  8
21  23  8
22  23  8
4  18  8
4  20  8
5  9  3
6  7  3
8  13  3

$$$$
8078
  -OEChem-02061913072D

  6  6  0     0  0  0  0  0  0999 V2000
    2.8660    1.0000    0.0000 C   0  0  0  0  0  0  0  0  0  0  0  0
    3.7320   -0.5000    0.0000 C   0  0  0  0  0  0  0  0  0  0  0  0
    2.0000    0.5000    0.0000 C   0  0  0  0  0  0  0  0  0  0  0  0
    2.8660   -1.0000    0.0000 C   0  0  0  0  0  0  0  0  0  0  0  0
    2.0000   -0.5000    0.0000 C   0  0  0  0  0  0  0  0  0  0  0  0
    3.7320    0.5000    0.0000 C   0  0  0  0  0  0  0  0  0  0  0  0
  1  3  1  0  0  0  0
  1  6  1  0  0  0  0
  2  4  1  0  0  0  0
  2  6  1  0  0  0  0
  3  5  1  0  0  0  0
  4  5  1  0  0  0  0
M  END
> <PUBCHEM_COMPOUND_CID>
8078

> <PUBCHEM_COMPOUND_CANONICALIZED>
1

> <PUBCHEM_CACTVS_COMPLEXITY>
15.5

> <PUBCHEM_CACTVS_HBOND_ACCEPTOR>
0

> <PUBCHEM_CACTVS_HBOND_DONOR>
0

> <PUBCHEM_CACTVS_ROTATABLE_BOND>
0

> <PUBCHEM_CACTVS_SUBSKEYS>
AAADccBgAAAAAAAAAAAAAAAAAAAAAAAAAAAwAAAAAAAAAAAAAAAAGAAAAAAACACAAAAAAAAAAAAAAAAAAAAAAAAAAAAAAAAAAAAAAAIAAAAAAAAAAAAAAAEAAAAAAAAAAAAAAAAAAAAAAAAAAAAAAAAAAA==

> <PUBCHEM_IUPAC_OPENEYE_NAME>
cyclohexane

> <PUBCHEM_IUPAC_CAS_NAME>
cyclohexane

> <PUBCHEM_IUPAC_NAME>
cyclohexane

> <PUBCHEM_IUPAC_SYSTEMATIC_NAME>
cyclohexane

> <PUBCHEM_IUPAC_TRADITIONAL_NAME>
cyclohexane

> <PUBCHEM_IUPAC_INCHI>
InChI=1S/C6H12/c1-2-4-6-5-3-1/h1-6H2

> <PUBCHEM_IUPAC_INCHIKEY>
XDTMQSROBMDMFD-UHFFFAOYSA-N

> <PUBCHEM_XLOGP3>
3.4

> <PUBCHEM_EXACT_MASS>
84.094

> <PUBCHEM_MOLECULAR_FORMULA>
C6H12

> <PUBCHEM_MOLECULAR_WEIGHT>
84.162

> <PUBCHEM_OPENEYE_CAN_SMILES>
C1CCCCC1

> <PUBCHEM_OPENEYE_ISO_SMILES>
C1CCCCC1

> <PUBCHEM_CACTVS_TPSA>
0

> <PUBCHEM_MONOISOTOPIC_WEIGHT>
84.094

> <PUBCHEM_TOTAL_CHARGE>
0

> <PUBCHEM_HEAVY_ATOM_COUNT>
6

> <PUBCHEM_ATOM_DEF_STEREO_COUNT>
0

> <PUBCHEM_ATOM_UDEF_STEREO_COUNT>
0

> <PUBCHEM_BOND_DEF_STEREO_COUNT>
0

> <PUBCHEM_BOND_UDEF_STEREO_COUNT>
0

> <PUBCHEM_ISOTOPIC_ATOM_COUNT>
0

> <PUBCHEM_COMPONENT_COUNT>
1

> <PUBCHEM_CACTVS_TAUTO_COUNT>
-1

> <PUBCHEM_COORDINATE_TYPE>
1
5
255

$$$$
64685
  -OEChem-02061913062D

 11 12  0     1  0  0  0  0  0999 V2000
    2.6176   -2.1937    0.0000 O   0  0  0  0  0  0  0  0  0  0  0  0
    4.4130   -0.6953    0.0000 C   0  0  3  0  0  0  0  0  0  0  0  0
    3.9352    1.2532    0.0000 C   0  0  0  0  0  0  0  0  0  0  0  0
    4.6718    0.2706    0.0000 C   0  0  3  0  0  0  0  0  0  0  0  0
    3.0403   -1.2874    0.0000 C   0  0  3  0  0  0  0  0  0  0  0  0
    5.8119   -1.2042    0.0000 C   0  0  0  0  0  0  0  0  0  0  0  0
    2.6982   -0.3477    0.0000 C   0  0  0  0  0  0  0  0  0  0  0  0
    6.0707   -0.2382    0.0000 C   0  0  0  0  0  0  0  0  0  0  0  0
    4.1541   -1.6613    0.0000 C   0  0  0  0  0  0  0  0  0  0  0  0
    4.0397    2.2477    0.0000 C   0  0  0  0  0  0  0  0  0  0  0  0
    3.0216    1.6599    0.0000 C   0  0  0  0  0  0  0  0  0  0  0  0
  1  5  1  0  0  0  0
  2  3  1  0  0  0  0
  2  5  1  0  0  0  0
  2  6  1  0  0  0  0
  2  9  1  0  0  0  0
  3  4  1  0  0  0  0
  3 10  1  0  0  0  0
  3 11  1  0  0  0  0
  4  7  1  0  0  0  0
  4  8  1  0  0  0  0
  5  7  1  0  0  0  0
  6  8  1  0  0  0  0
M  END
> <PUBCHEM_COMPOUND_CID>
64685

> <PUBCHEM_COMPOUND_CANONICALIZED>
1

> <PUBCHEM_CACTVS_COMPLEXITY>
185

> <PUBCHEM_CACTVS_HBOND_ACCEPTOR>
1

> <PUBCHEM_CACTVS_HBOND_DONOR>
1

> <PUBCHEM_CACTVS_ROTATABLE_BOND>
0

> <PUBCHEM_CACTVS_SUBSKEYS>
AAADceBwIAAAAAAAAAAAAAAAAAAAAYMAAAAwAAAAAAAAAAAAAAAAGgAACAAADxSggAICAAAAAgAAAAAAAAAAAAAAAAAAAAAAAAAAEAIAAAAAQAAEAAAAAAGAwPAPgAAAAAAAAACAAAIAABAAAYAADAAAAA==

> <PUBCHEM_IUPAC_OPENEYE_NAME>
1,7,7-trimethylnorbornan-2-ol

> <PUBCHEM_IUPAC_CAS_NAME>
1,7,7-trimethyl-2-bicyclo[2.2.1]heptanol

> <PUBCHEM_IUPAC_NAME>
1,7,7-trimethylbicyclo[2.2.1]heptan-2-ol

> <PUBCHEM_IUPAC_SYSTEMATIC_NAME>
1,7,7-trimethylbicyclo[2.2.1]heptan-2-ol

> <PUBCHEM_IUPAC_TRADITIONAL_NAME>
1,7,7-trimethylnorbornan-2-ol

> <PUBCHEM_IUPAC_INCHI>
InChI=1S/C10H18O/c1-9(2)7-4-5-10(9,3)8(11)6-7/h7-8,11H,4-6H2,1-3H3

> <PUBCHEM_IUPAC_INCHIKEY>
DTGKSKDOIYIVQL-UHFFFAOYSA-N

> <PUBCHEM_XLOGP3>
2.7

> <PUBCHEM_EXACT_MASS>
154.136

> <PUBCHEM_MOLECULAR_FORMULA>
C10H18O

> <PUBCHEM_MOLECULAR_WEIGHT>
154.253

> <PUBCHEM_OPENEYE_CAN_SMILES>
CC1(C2CCC1(C(C2)O)C)C

> <PUBCHEM_OPENEYE_ISO_SMILES>
CC1(C2CCC1(C(C2)O)C)C

> <PUBCHEM_CACTVS_TPSA>
20.2

> <PUBCHEM_MONOISOTOPIC_WEIGHT>
154.136

> <PUBCHEM_TOTAL_CHARGE>
0

> <PUBCHEM_HEAVY_ATOM_COUNT>
11

> <PUBCHEM_ATOM_DEF_STEREO_COUNT>
0

> <PUBCHEM_ATOM_UDEF_STEREO_COUNT>
3

> <PUBCHEM_BOND_DEF_STEREO_COUNT>
0

> <PUBCHEM_BOND_UDEF_STEREO_COUNT>
0

> <PUBCHEM_ISOTOPIC_ATOM_COUNT>
0

> <PUBCHEM_COMPONENT_COUNT>
1

> <PUBCHEM_CACTVS_TAUTO_COUNT>
-1

> <PUBCHEM_COORDINATE_TYPE>
1
5
255

> <PUBCHEM_BONDANNOTATIONS>
5  1  3
2  3  3
4  3  3

$$$$
87070941
  -OEChem-02061914492D

 29 31  0     1  0  0  0  0  0999 V2000
    5.4641   -4.8465    0.0000 O   0  0  0  0  0  0  0  0  0  0  0  0
    5.4641    1.1535    0.0000 C   0  0  2  0  0  0  0  0  0  0  0  0
    6.4103    1.4582    0.0000 C   0  0  2  0  0  0  0  0  0  0  0  0
    5.4641    0.1535    0.0000 C   0  0  3  0  0  0  0  0  0  0  0  0
    6.9939    0.6535    0.0000 C   0  0  0  0  0  0  0  0  0  0  0  0
    6.4103   -0.1512    0.0000 C   0  0  0  0  0  0  0  0  0  0  0  0
    4.5981    1.6535    0.0000 C   0  0  0  0  0  0  0  0  0  0  0  0
    6.7210    2.4087    0.0000 C   0  0  2  0  0  0  0  0  0  0  0  0
    4.5981   -0.3465    0.0000 C   0  0  0  0  0  0  0  0  0  0  0  0
    5.4641    2.1535    0.0000 C   0  0  0  0  0  0  0  0  0  0  0  0
    3.7320    1.1535    0.0000 C   0  0  0  0  0  0  0  0  0  0  0  0
    3.7320    0.1535    0.0000 C   0  0  0  0  0  0  0  0  0  0  0  0
    6.0531    3.1530    0.0000 C   0  0  0  0  0  0  0  0  0  0  0  0
    7.6995    2.6150    0.0000 C   0  0  0  0  0  0  0  0  0  0  0  0
    4.5981   -1.3465    0.0000 C   0  0  0  0  0  0  0  0  0  0  0  0
    8.0102    3.5655    0.0000 C   0  0  0  0  0  0  0  0  0  0  0  0
    3.7320   -1.8465    0.0000 C   0  0  0  0  0  0  0  0  0  0  0  0
    8.9887    3.7717    0.0000 C   0  0  1  0  0  0  0  0  0  0  0  0
    3.7320   -2.8465    0.0000 C   0  0  0  0  0  0  0  0  0  0  0  0
    9.2993    4.7222    0.0000 C   0  0  0  0  0  0  0  0  0  0  0  0
    4.5981   -3.3465    0.0000 C   0  0  0  0  0  0  0  0  0  0  0  0
    9.6565    3.0274    0.0000 C   0  0  0  0  0  0  0  0  0  0  0  0
    2.8660   -3.3465    0.0000 C   0  0  0  0  0  0  0  0  0  0  0  0
    4.5981   -4.3465    0.0000 C   0  0  2  0  0  0  0  0  0  0  0  0
    2.8660   -4.3465    0.0000 C   0  0  0  0  0  0  0  0  0  0  0  0
    3.7320   -4.8465    0.0000 C   0  0  0  0  0  0  0  0  0  0  0  0
   10.2778    4.9284    0.0000 C   0  0  0  0  0  0  0  0  0  0  0  0
    8.6315    5.4665    0.0000 C   0  0  0  0  0  0  0  0  0  0  0  0
    2.0000   -2.8465    0.0000 C   0  0  0  0  0  0  0  0  0  0  0  0
 24  1  1  1  0  0  0
  2  3  1  0  0  0  0
  2  4  1  0  0  0  0
  2  7  1  0  0  0  0
  2 10  1  1  0  0  0
  3  5  1  0  0  0  0
  3  8  1  0  0  0  0
  4  6  1  0  0  0  0
  4  9  1  0  0  0  0
  5  6  1  0  0  0  0
  7 11  1  0  0  0  0
  8 13  1  6  0  0  0
  8 14  1  0  0  0  0
  9 12  1  0  0  0  0
  9 15  2  3  0  0  0
 11 12  1  0  0  0  0
 14 16  2  0  0  0  0
 15 17  1  0  0  0  0
 16 18  1  0  0  0  0
 17 19  2  3  0  0  0
 18 20  1  0  0  0  0
 18 22  1  1  0  0  0
 19 21  1  0  0  0  0
 19 23  1  0  0  0  0
 20 27  1  0  0  0  0
 20 28  1  0  0  0  0
 21 24  1  0  0  0  0
 23 25  1  0  0  0  0
 23 29  2  0  0  0  0
 24 26  1  0  0  0  0
 25 26  1  0  0  0  0
M  END
> <PUBCHEM_COMPOUND_CID>
87070941

> <PUBCHEM_COMPOUND_CANONICALIZED>
1

> <PUBCHEM_CACTVS_COMPLEXITY>
678

> <PUBCHEM_CACTVS_HBOND_ACCEPTOR>
1

> <PUBCHEM_CACTVS_HBOND_DONOR>
1

> <PUBCHEM_CACTVS_ROTATABLE_BOND>
5

> <PUBCHEM_CACTVS_SUBSKEYS>
AAADcfB4IAAAAAAAAAAAAAAAAAAAAYAAAAAwYAAAAAAAAGAAAAAAGgAACAAADxSggAICAAAAAgCAAiBCAAAAAAAgAAAICAAAAAgIEAIAAQAAQAAEwAAIgAOAwMAPgAAAAAAAAAAAAAAAACAAAQAACAAAAA==

> <PUBCHEM_IUPAC_OPENEYE_NAME>
(1~{S})-3-[2-[(1~{R},7~{a}~{R})-7~{a}-methyl-1-[(~{E},1~{R},4~{R})-1,4,5-trimethylhex-2-enyl]-2,3,3~{a},5,6,7-hexahydro-1~{H}-inden-4-ylidene]ethylidene]-4-methylene-cyclohexanol

> <PUBCHEM_IUPAC_CAS_NAME>
(1~{S})-3-[2-[(1~{R},7~{a}~{R})-1-[(~{E},2~{R},5~{R})-5,6-dimethylhept-3-en-2-yl]-7~{a}-methyl-2,3,3~{a},5,6,7-hexahydro-1~{H}-inden-4-ylidene]ethylidene]-4-methylene-1-cyclohexanol

> <PUBCHEM_IUPAC_NAME>
(1~{S})-3-[2-[(1~{R},7~{a}~{R})-1-[(~{E},2~{R},5~{R})-5,6-dimethylhept-3-en-2-yl]-7~{a}-methyl-2,3,3~{a},5,6,7-hexahydro-1~{H}-inden-4-ylidene]ethylidene]-4-methylidenecyclohexan-1-ol

> <PUBCHEM_IUPAC_SYSTEMATIC_NAME>
(1~{S})-3-[2-[(1~{R},7~{a}~{R})-1-[(~{E},2~{R},5~{R})-5,6-dimethylhept-3-en-2-yl]-7~{a}-methyl-2,3,3~{a},5,6,7-hexahydro-1~{H}-inden-4-ylidene]ethylidene]-4-methylidene-cyclohexan-1-ol

> <PUBCHEM_IUPAC_TRADITIONAL_NAME>
(1~{S})-3-[2-[(1~{R},7~{a}~{R})-7~{a}-methyl-1-[(~{E},1~{R},4~{R})-1,4,5-trimethylhex-2-enyl]-2,3,3~{a},5,6,7-hexahydro-1~{H}-inden-4-ylidene]ethylidene]-4-methylene-cyclohexanol

> <PUBCHEM_IUPAC_INCHI>
InChI=1S/C28H44O/c1-19(2)20(3)9-10-22(5)26-15-16-27-23(8-7-17-28(26,27)6)12-13-24-18-25(29)14-11-21(24)4/h9-10,12-13,19-20,22,25-27,29H,4,7-8,11,14-18H2,1-3,5-6H3/b10-9+,23-12?,24-13?/t20-,22+,25-,26+,27?,28+/m0/s1

> <PUBCHEM_IUPAC_INCHIKEY>
MECHNRXZTMCUDQ-YURPUENCSA-N

> <PUBCHEM_XLOGP3_AA>
7.4

> <PUBCHEM_EXACT_MASS>
396.339

> <PUBCHEM_MOLECULAR_FORMULA>
C28H44O

> <PUBCHEM_MOLECULAR_WEIGHT>
396.659

> <PUBCHEM_OPENEYE_CAN_SMILES>
CC(C)C(C)C=CC(C)C1CCC2C1(CCCC2=CC=C3CC(CCC3=C)O)C

> <PUBCHEM_OPENEYE_ISO_SMILES>
C[C@H](/C=C/[C@H](C)C(C)C)[C@H]1CCC2[C@@]1(CCCC2=CC=C3C[C@H](CCC3=C)O)C

> <PUBCHEM_CACTVS_TPSA>
20.2

> <PUBCHEM_MONOISOTOPIC_WEIGHT>
396.339

> <PUBCHEM_TOTAL_CHARGE>
0

> <PUBCHEM_HEAVY_ATOM_COUNT>
29

> <PUBCHEM_ATOM_DEF_STEREO_COUNT>
5

> <PUBCHEM_ATOM_UDEF_STEREO_COUNT>
1

> <PUBCHEM_BOND_DEF_STEREO_COUNT>
1

> <PUBCHEM_BOND_UDEF_STEREO_COUNT>
2

> <PUBCHEM_ISOTOPIC_ATOM_COUNT>
0

> <PUBCHEM_COMPONENT_COUNT>
1

> <PUBCHEM_CACTVS_TAUTO_COUNT>
-1

> <PUBCHEM_COORDINATE_TYPE>
1
5
255

> <PUBCHEM_BONDANNOTATIONS>
24  1  5
17  19  1
18  22  5
2  10  5
3  30  6
4  6  3
8  13  6
9  15  1

$$$$
5770
  -OEChem-02061913062D

 44 49  0     1  0  0  0  0  0999 V2000
   10.9540   -2.0697    0.0000 O   0  0  0  0  0  0  0  0  0  0  0  0
   12.3536   -0.5153    0.0000 O   0  0  0  0  0  0  0  0  0  0  0  0
    9.2094   -2.5737    0.0000 O   0  0  0  0  0  0  0  0  0  0  0  0
    7.9357   -1.3999    0.0000 O   0  0  0  0  0  0  0  0  0  0  0  0
   12.7071    1.1803    0.0000 O   0  0  0  0  0  0  0  0  0  0  0  0
    2.6726    1.9031    0.0000 O   0  0  0  0  0  0  0  0  0  0  0  0
   16.3102    1.3136    0.0000 O   0  0  0  0  0  0  0  0  0  0  0  0
   15.6031   -2.0776    0.0000 O   0  0  0  0  0  0  0  0  0  0  0  0
   16.9356   -0.5862    0.0000 O   0  0  0  0  0  0  0  0  0  0  0  0
    8.6152    2.1163    0.0000 N   0  0  3  0  0  0  0  0  0  0  0  0
    6.1621    0.9988    0.0000 N   0  0  0  0  0  0  0  0  0  0  0  0
    9.2698    0.1532    0.0000 C   0  0  2  0  0  0  0  0  0  0  0  0
    9.9668    0.9273    0.0000 C   0  0  1  0  0  0  0  0  0  0  0  0
    8.2526    0.3776    0.0000 C   0  0  0  0  0  0  0  0  0  0  0  0
    9.5891   -0.8837    0.0000 C   0  0  1  0  0  0  0  0  0  0  0  0
    7.9460    1.3731    0.0000 C   0  0  2  0  0  0  0  0  0  0  0  0
    9.6372    1.9154    0.0000 C   0  0  0  0  0  0  0  0  0  0  0  0
   11.0314    0.7181    0.0000 C   0  0  0  0  0  0  0  0  0  0  0  0
   10.6486   -1.1175    0.0000 C   0  0  2  0  0  0  0  0  0  0  0  0
   11.3746   -0.3112    0.0000 C   0  0  2  0  0  0  0  0  0  0  0  0
    6.9679    1.5810    0.0000 C   0  0  0  0  0  0  0  0  0  0  0  0
    8.3061    3.0673    0.0000 C   0  0  0  0  0  0  0  0  0  0  0  0
    6.6589    2.5321    0.0000 C   0  0  0  0  0  0  0  0  0  0  0  0
    7.3280    3.2752    0.0000 C   0  0  0  0  0  0  0  0  0  0  0  0
    8.9114   -1.6191    0.0000 C   0  0  0  0  0  0  0  0  0  0  0  0
    5.6648    2.5295    0.0000 C   0  0  0  0  0  0  0  0  0  0  0  0
    5.3584    1.5838    0.0000 C   0  0  0  0  0  0  0  0  0  0  0  0
   11.9313   -2.2814    0.0000 C   0  0  0  0  0  0  0  0  0  0  0  0
    4.9832    3.3090    0.0000 C   0  0  0  0  0  0  0  0  0  0  0  0
   13.0198    0.2304    0.0000 C   0  0  0  0  0  0  0  0  0  0  0  0
    4.3492    1.3521    0.0000 C   0  0  0  0  0  0  0  0  0  0  0  0
    3.9689    3.1007    0.0000 C   0  0  0  0  0  0  0  0  0  0  0  0
    3.6498    2.1156    0.0000 C   0  0  0  0  0  0  0  0  0  0  0  0
    8.5317   -3.3090    0.0000 C   0  0  0  0  0  0  0  0  0  0  0  0
   13.9988    0.0263    0.0000 C   0  0  0  0  0  0  0  0  0  0  0  0
   14.3114   -0.9236    0.0000 C   0  0  0  0  0  0  0  0  0  0  0  0
   14.6650    0.7720    0.0000 C   0  0  0  0  0  0  0  0  0  0  0  0
   15.6440    0.5678    0.0000 C   0  0  0  0  0  0  0  0  0  0  0  0
   15.2904   -1.1277    0.0000 C   0  0  0  0  0  0  0  0  0  0  0  0
    2.0000    2.6430    0.0000 C   0  0  0  0  0  0  0  0  0  0  0  0
   15.9566   -0.3820    0.0000 C   0  0  0  0  0  0  0  0  0  0  0  0
   15.9975    2.2634    0.0000 C   0  0  0  0  0  0  0  0  0  0  0  0
   14.9368   -2.8233    0.0000 C   0  0  0  0  0  0  0  0  0  0  0  0
   17.6018    0.1596    0.0000 C   0  0  0  0  0  0  0  0  0  0  0  0
 19  1  1  6  0  0  0
  1 28  1  0  0  0  0
 20  2  1  1  0  0  0
  2 30  1  0  0  0  0
  3 25  1  0  0  0  0
  3 34  1  0  0  0  0
  4 25  2  0  0  0  0
  5 30  2  0  0  0  0
  6 33  1  0  0  0  0
  6 40  1  0  0  0  0
  7 38  1  0  0  0  0
  7 42  1  0  0  0  0
  8 39  1  0  0  0  0
  8 43  1  0  0  0  0
  9 41  1  0  0  0  0
  9 44  1  0  0  0  0
 10 16  1  0  0  0  0
 10 17  1  0  0  0  0
 10 22  1  0  0  0  0
 11 21  1  0  0  0  0
 11 27  1  0  0  0  0
 12 13  1  0  0  0  0
 12 14  1  0  0  0  0
 12 15  1  0  0  0  0
 13 17  1  0  0  0  0
 13 18  1  0  0  0  0
 14 16  1  0  0  0  0
 15 19  1  0  0  0  0
 15 25  1  1  0  0  0
 16 21  1  0  0  0  0
 18 20  1  0  0  0  0
 19 20  1  0  0  0  0
 21 23  2  0  0  0  0
 22 24  1  0  0  0  0
 23 24  1  0  0  0  0
 23 26  1  0  0  0  0
 26 27  2  0  0  0  0
 26 29  1  0  0  0  0
 27 31  1  0  0  0  0
 29 32  2  0  0  0  0
 30 35  1  0  0  0  0
 31 33  2  0  0  0  0
 32 33  1  0  0  0  0
 35 36  2  0  0  0  0
 35 37  1  0  0  0  0
 36 39  1  0  0  0  0
 37 38  2  0  0  0  0
 38 41  1  0  0  0  0
 39 41  2  0  0  0  0
M  END
> <PUBCHEM_COMPOUND_CID>
5770

> <PUBCHEM_COMPOUND_CANONICALIZED>
1

> <PUBCHEM_CACTVS_COMPLEXITY>
1000

> <PUBCHEM_CACTVS_HBOND_ACCEPTOR>
10

> <PUBCHEM_CACTVS_HBOND_DONOR>
1

> <PUBCHEM_CACTVS_ROTATABLE_BOND>
10

> <PUBCHEM_CACTVS_SUBSKEYS>
AAADcfB/PAAAAAAAAAAAAAAAAAAAAWAAAAA8eMECAAAAAFix9AAAHgAQAAAADTzhngYyzvPJlACoAyTyTACCiCAlIiAImSE+7NgNZ/bEtZuWMSpn8B3K6Yf6/f/eoAABCgACQABAAAYUADSAAAAAAAAAAA==

> <PUBCHEM_IUPAC_OPENEYE_NAME>
methyl (1~{R},15~{S},17~{R},18~{R},19~{S},20~{S})-6,18-dimethoxy-17-(3,4,5-trimethoxybenzoyl)oxy-1,3,11,12,14,15,16,17,18,19,20,21-dodecahydroyohimban-19-carboxylate

> <PUBCHEM_IUPAC_CAS_NAME>
(1~{R},15~{S},17~{R},18~{R},19~{S},20~{S})-6,18-dimethoxy-17-[oxo-(3,4,5-trimethoxyphenyl)methoxy]-1,3,11,12,14,15,16,17,18,19,20,21-dodecahydroyohimban-19-carboxylic acid methyl ester

> <PUBCHEM_IUPAC_NAME>
methyl (1~{R},15~{S},17~{R},18~{R},19~{S},20~{S})-6,18-dimethoxy-17-(3,4,5-trimethoxybenzoyl)oxy-1,3,11,12,14,15,16,17,18,19,20,21-dodecahydroyohimban-19-carboxylate

> <PUBCHEM_IUPAC_SYSTEMATIC_NAME>
methyl (1~{R},15~{S},17~{R},18~{R},19~{S},20~{S})-6,18-dimethoxy-17-(3,4,5-trimethoxyphenyl)carbonyloxy-1,3,11,12,14,15,16,17,18,19,20,21-dodecahydroyohimban-19-carboxylate

> <PUBCHEM_IUPAC_TRADITIONAL_NAME>
(1~{R},15~{S},17~{R},18~{R},19~{S},20~{S})-6,18-dimethoxy-17-(3,4,5-trimethoxybenzoyl)oxy-1,3,11,12,14,15,16,17,18,19,20,21-dodecahydroyohimban-19-carboxylic acid methyl ester

> <PUBCHEM_IUPAC_INCHI>
InChI=1S/C33H40N2O9/c1-38-19-7-8-20-21-9-10-35-16-18-13-27(44-32(36)17-11-25(39-2)30(41-4)26(12-17)40-3)31(42-5)28(33(37)43-6)22(18)15-24(35)29(21)34-23(20)14-19/h7-8,11-12,14,18,22,24,27-28,31,34H,9-10,13,15-16H2,1-6H3/t18-,22+,24-,27-,28+,31+/m1/s1

> <PUBCHEM_IUPAC_INCHIKEY>
QEVHRUUCFGRFIF-MDEJGZGSSA-N

> <PUBCHEM_XLOGP3_AA>
4

> <PUBCHEM_EXACT_MASS>
608.273

> <PUBCHEM_MOLECULAR_FORMULA>
C33H40N2O9

> <PUBCHEM_MOLECULAR_WEIGHT>
608.688

> <PUBCHEM_OPENEYE_CAN_SMILES>
COC1C(CC2CN3CCC4=C(C3CC2C1C(=O)OC)NC5=C4C=CC(=C5)OC)OC(=O)C6=CC(=C(C(=C6)OC)OC)OC

> <PUBCHEM_OPENEYE_ISO_SMILES>
CO[C@H]1[C@@H](C[C@@H]2CN3CCC4=C([C@H]3C[C@@H]2[C@@H]1C(=O)OC)NC5=C4C=CC(=C5)OC)OC(=O)C6=CC(=C(C(=C6)OC)OC)OC

> <PUBCHEM_CACTVS_TPSA>
118

> <PUBCHEM_MONOISOTOPIC_WEIGHT>
608.273

> <PUBCHEM_TOTAL_CHARGE>
0

> <PUBCHEM_HEAVY_ATOM_COUNT>
44

> <PUBCHEM_ATOM_DEF_STEREO_COUNT>
6

> <PUBCHEM_ATOM_UDEF_STEREO_COUNT>
0

> <PUBCHEM_BOND_DEF_STEREO_COUNT>
0

> <PUBCHEM_BOND_UDEF_STEREO_COUNT>
0

> <PUBCHEM_ISOTOPIC_ATOM_COUNT>
0

> <PUBCHEM_COMPONENT_COUNT>
1

> <PUBCHEM_CACTVS_TAUTO_COUNT>
-1

> <PUBCHEM_COORDINATE_TYPE>
1
5
255

> <PUBCHEM_BONDANNOTATIONS>
19  1  6
11  21  8
11  27  8
12  45  6
13  46  6
15  25  5
16  50  5
20  2  5
21  23  8
23  26  8
26  27  8
26  29  8
27  31  8
29  32  8
31  33  8
32  33  8
35  36  8
35  37  8
36  39  8
37  38  8
38  41  8
39  41  8

$$$$
7922
  -OEChem-02061913072D

  7  7  0     0  0  0  0  0  0999 V2000
    3.7601   -0.7694    0.0000 O   0  0  0  0  0  0  0  0  0  0  0  0
    5.5202   -0.4907    0.0000 O   0  0  0  0  0  0  0  0  0  0  0  0
    2.0000   -0.4907    0.0000 O   0  0  0  0  0  0  0  0  0  0  0  0
    4.2601    0.7694    0.0000 C   0  0  0  0  0  0  0  0  0  0  0  0
    3.2601    0.7694    0.0000 C   0  0  0  0  0  0  0  0  0  0  0  0
    4.5691   -0.1816    0.0000 C   0  0  0  0  0  0  0  0  0  0  0  0
    2.9511   -0.1816    0.0000 C   0  0  0  0  0  0  0  0  0  0  0  0
  1  6  1  0  0  0  0
  1  7  1  0  0  0  0
  2  6  2  0  0  0  0
  3  7  2  0  0  0  0
  4  5  1  0  0  0  0
  4  6  1  0  0  0  0
  5  7  1  0  0  0  0
M  END
> <PUBCHEM_COMPOUND_CID>
7922

> <PUBCHEM_COMPOUND_CANONICALIZED>
1

> <PUBCHEM_CACTVS_COMPLEXITY>
102

> <PUBCHEM_CACTVS_HBOND_ACCEPTOR>
3

> <PUBCHEM_CACTVS_HBOND_DONOR>
0

> <PUBCHEM_CACTVS_ROTATABLE_BOND>
0

> <PUBCHEM_CACTVS_SUBSKEYS>
AAADcYBgMAAAAAAAAAAAAAAAAAAAASAAAAAAAAAAAAAAAAAAAAAAGgAAAAAACACAgAAACAAABAAIAACQCAAAAAAAAAAAAAEAAAAAABAAAAACAAAEAAAAAAADAAAAAAAAAAAAAAAAAAAAAAAAAAAAAAAAAA==

> <PUBCHEM_IUPAC_OPENEYE_NAME>
tetrahydrofuran-2,5-dione

> <PUBCHEM_IUPAC_CAS_NAME>
oxolane-2,5-dione

> <PUBCHEM_IUPAC_NAME>
oxolane-2,5-dione

> <PUBCHEM_IUPAC_SYSTEMATIC_NAME>
oxolane-2,5-dione

> <PUBCHEM_IUPAC_TRADITIONAL_NAME>
tetrahydrofuran-2,5-quinone

> <PUBCHEM_IUPAC_INCHI>
InChI=1S/C4H4O3/c5-3-1-2-4(6)7-3/h1-2H2

> <PUBCHEM_IUPAC_INCHIKEY>
RINCXYDBBGOEEQ-UHFFFAOYSA-N

> <PUBCHEM_XLOGP3_AA>
-0.5

> <PUBCHEM_EXACT_MASS>
100.016

> <PUBCHEM_MOLECULAR_FORMULA>
C4H4O3

> <PUBCHEM_MOLECULAR_WEIGHT>
100.073

> <PUBCHEM_OPENEYE_CAN_SMILES>
C1CC(=O)OC1=O

> <PUBCHEM_OPENEYE_ISO_SMILES>
C1CC(=O)OC1=O

> <PUBCHEM_CACTVS_TPSA>
43.4

> <PUBCHEM_MONOISOTOPIC_WEIGHT>
100.016

> <PUBCHEM_TOTAL_CHARGE>
0

> <PUBCHEM_HEAVY_ATOM_COUNT>
7

> <PUBCHEM_ATOM_DEF_STEREO_COUNT>
0

> <PUBCHEM_ATOM_UDEF_STEREO_COUNT>
0

> <PUBCHEM_BOND_DEF_STEREO_COUNT>
0

> <PUBCHEM_BOND_UDEF_STEREO_COUNT>
0

> <PUBCHEM_ISOTOPIC_ATOM_COUNT>
0

> <PUBCHEM_COMPONENT_COUNT>
1

> <PUBCHEM_CACTVS_TAUTO_COUNT>
-1

> <PUBCHEM_COORDINATE_TYPE>
1
5
255

$$$$
11487
  -OEChem-02061913072D

 13 14  0     0  0  0  0  0  0999 V2000
    2.8660    0.5000    0.0000 N   0  0  0  0  0  0  0  0  0  0  0  0
    2.8660   -0.5000    0.0000 C   0  0  0  0  0  0  0  0  0  0  0  0
    3.7320    1.0000    0.0000 C   0  0  0  0  0  0  0  0  0  0  0  0
    2.0000   -1.0000    0.0000 C   0  0  0  0  0  0  0  0  0  0  0  0
    4.5981    0.5000    0.0000 C   0  0  0  0  0  0  0  0  0  0  0  0
    3.7320   -1.0000    0.0000 C   0  0  0  0  0  0  0  0  0  0  0  0
    3.7320    2.0000    0.0000 C   0  0  0  0  0  0  0  0  0  0  0  0
    2.0000   -2.0000    0.0000 C   0  0  0  0  0  0  0  0  0  0  0  0
    5.4641    1.0000    0.0000 C   0  0  0  0  0  0  0  0  0  0  0  0
    3.7320   -2.0000    0.0000 C   0  0  0  0  0  0  0  0  0  0  0  0
    4.5981    2.5000    0.0000 C   0  0  0  0  0  0  0  0  0  0  0  0
    5.4641    2.0000    0.0000 C   0  0  0  0  0  0  0  0  0  0  0  0
    2.8660   -2.5000    0.0000 C   0  0  0  0  0  0  0  0  0  0  0  0
  1  2  1  0  0  0  0
  1  3  1  0  0  0  0
  2  4  2  0  0  0  0
  2  6  1  0  0  0  0
  3  5  2  0  0  0  0
  3  7  1  0  0  0  0
  4  8  1  0  0  0  0
  5  9  1  0  0  0  0
  6 10  2  0  0  0  0
  7 11  2  0  0  0  0
  8 13  2  0  0  0  0
  9 12  2  0  0  0  0
 10 13  1  0  0  0  0
 11 12  1  0  0  0  0
M  END
> <PUBCHEM_COMPOUND_CID>
11487

> <PUBCHEM_COMPOUND_CANONICALIZED>
1

> <PUBCHEM_CACTVS_COMPLEXITY>
116

> <PUBCHEM_CACTVS_HBOND_ACCEPTOR>
1

> <PUBCHEM_CACTVS_HBOND_DONOR>
1

> <PUBCHEM_CACTVS_ROTATABLE_BOND>
2

> <PUBCHEM_CACTVS_SUBSKEYS>
AAADccByAAAAAAAAAAAAAAAAAAAAAAAAAAAwYAAAAAAAAAABQAAAHAAQAAAACAiBEAAwwILAAACAACRCQACCAAAhAgAIiAAAZIgIIGLAkZGEIAhgkADIyAcQAAAAAAAAAAAAAAAAAAAAAAAAAAAAAAAAAA==

> <PUBCHEM_IUPAC_OPENEYE_NAME>
~{N}-phenylaniline

> <PUBCHEM_IUPAC_CAS_NAME>
~{N}-phenylaniline

> <PUBCHEM_IUPAC_NAME>
~{N}-phenylaniline

> <PUBCHEM_IUPAC_SYSTEMATIC_NAME>
~{N}-phenylaniline

> <PUBCHEM_IUPAC_TRADITIONAL_NAME>
diphenylamine

> <PUBCHEM_IUPAC_INCHI>
InChI=1S/C12H11N/c1-3-7-11(8-4-1)13-12-9-5-2-6-10-12/h1-10,13H

> <PUBCHEM_IUPAC_INCHIKEY>
DMBHHRLKUKUOEG-UHFFFAOYSA-N

> <PUBCHEM_XLOGP3>
3.5

> <PUBCHEM_EXACT_MASS>
169.089

> <PUBCHEM_MOLECULAR_FORMULA>
C12H11N

> <PUBCHEM_MOLECULAR_WEIGHT>
169.227

> <PUBCHEM_OPENEYE_CAN_SMILES>
C1=CC=C(C=C1)NC2=CC=CC=C2

> <PUBCHEM_OPENEYE_ISO_SMILES>
C1=CC=C(C=C1)NC2=CC=CC=C2

> <PUBCHEM_CACTVS_TPSA>
12

> <PUBCHEM_MONOISOTOPIC_WEIGHT>
169.089

> <PUBCHEM_TOTAL_CHARGE>
0

> <PUBCHEM_HEAVY_ATOM_COUNT>
13

> <PUBCHEM_ATOM_DEF_STEREO_COUNT>
0

> <PUBCHEM_ATOM_UDEF_STEREO_COUNT>
0

> <PUBCHEM_BOND_DEF_STEREO_COUNT>
0

> <PUBCHEM_BOND_UDEF_STEREO_COUNT>
0

> <PUBCHEM_ISOTOPIC_ATOM_COUNT>
0

> <PUBCHEM_COMPONENT_COUNT>
1

> <PUBCHEM_CACTVS_TAUTO_COUNT>
-1

> <PUBCHEM_COORDINATE_TYPE>
1
5
255

> <PUBCHEM_BONDANNOTATIONS>
10  13  8
11  12  8
2  4  8
2  6  8
3  5  8
3  7  8
4  8  8
5  9  8
6  10  8
7  11  8
8  13  8
9  12  8

$$$$
168842
  -OEChem-02061913062D

 13 14  0     1  0  0  0  0  0999 V2000
    4.9624    2.0930    0.0000 O   0  0  0  0  0  0  0  0  0  0  0  0
    2.6487   -1.4410    0.0000 O   0  0  0  0  0  0  0  0  0  0  0  0
    2.7320    1.9110    0.0000 O   0  0  0  0  0  0  0  0  0  0  0  0
    4.2184   -2.1730    0.0000 O   0  0  0  0  0  0  0  0  0  0  0  0
    2.0000    0.3412    0.0000 O   0  0  0  0  0  0  0  0  0  0  0  0
    5.4402    0.1445    0.0000 C   0  0  1  0  0  0  0  0  0  0  0  0
    5.6990    1.1104    0.0000 C   0  0  2  0  0  0  0  0  0  0  0  0
    4.0675   -0.4475    0.0000 C   0  0  2  0  0  0  0  0  0  0  0  0
    3.7255    0.4922    0.0000 C   0  0  1  0  0  0  0  0  0  0  0  0
    6.8391   -0.3643    0.0000 C   0  0  0  0  0  0  0  0  0  0  0  0
    7.0979    0.6016    0.0000 C   0  0  0  0  0  0  0  0  0  0  0  0
    3.6449   -1.3538    0.0000 C   0  0  0  0  0  0  0  0  0  0  0  0
    2.8192    0.9148    0.0000 C   0  0  0  0  0  0  0  0  0  0  0  0
  1  6  1  0  0  0  0
  1  7  1  0  0  0  0
  2 12  1  0  0  0  0
  3 13  1  0  0  0  0
  4 12  2  0  0  0  0
  5 13  2  0  0  0  0
  6  8  1  0  0  0  0
  6 10  1  0  0  0  0
  7  9  1  0  0  0  0
  7 11  1  0  0  0  0
  8  9  1  0  0  0  0
  8 12  1  1  0  0  0
  9 13  1  1  0  0  0
 10 11  1  0  0  0  0
M  END
> <PUBCHEM_COMPOUND_CID>
168842

> <PUBCHEM_COMPOUND_CANONICALIZED>
1

> <PUBCHEM_CACTVS_COMPLEXITY>
235

> <PUBCHEM_CACTVS_HBOND_ACCEPTOR>
5

> <PUBCHEM_CACTVS_HBOND_DONOR>
2

> <PUBCHEM_CACTVS_ROTATABLE_BOND>
2

> <PUBCHEM_CACTVS_SUBSKEYS>
AAADccBwOAAAAAAAAAAAAAAAAAAAASJAAAAwAAAAAAAAAAAAAAAAGgAACAAADRSggAIACAAABgAIAACQCAAAAAAAAAAAAAEAAAAAABYAAAACQAAFIAAAAAHLyLCOgAAAAAAAAAAAAAIAADAAAAAAAAAAAA==

> <PUBCHEM_IUPAC_OPENEYE_NAME>
(1~{R},2~{S},3~{R},4~{S})-7-oxabicyclo[2.2.1]heptane-2,3-dicarboxylic acid

> <PUBCHEM_IUPAC_CAS_NAME>
(1~{R},2~{S},3~{R},4~{S})-7-oxabicyclo[2.2.1]heptane-2,3-dicarboxylic acid

> <PUBCHEM_IUPAC_NAME>
(1~{R},2~{S},3~{R},4~{S})-7-oxabicyclo[2.2.1]heptane-2,3-dicarboxylic acid

> <PUBCHEM_IUPAC_SYSTEMATIC_NAME>
(1~{R},2~{S},3~{R},4~{S})-7-oxabicyclo[2.2.1]heptane-2,3-dicarboxylic acid

> <PUBCHEM_IUPAC_TRADITIONAL_NAME>
(1~{R},2~{S},3~{R},4~{S})-7-oxabicyclo[2.2.1]heptane-2,3-dicarboxylic acid

> <PUBCHEM_IUPAC_INCHI>
InChI=1S/C8H10O5/c9-7(10)5-3-1-2-4(13-3)6(5)8(11)12/h3-6H,1-2H2,(H,9,10)(H,11,12)/t3-,4+,5-,6+

> <PUBCHEM_IUPAC_INCHIKEY>
GXEKYRXVRROBEV-FBXFSONDSA-N

> <PUBCHEM_XLOGP3_AA>
-0.5

> <PUBCHEM_EXACT_MASS>
186.053

> <PUBCHEM_MOLECULAR_FORMULA>
C8H10O5

> <PUBCHEM_MOLECULAR_WEIGHT>
186.163

> <PUBCHEM_OPENEYE_CAN_SMILES>
C1CC2C(C(C1O2)C(=O)O)C(=O)O

> <PUBCHEM_OPENEYE_ISO_SMILES>
C1C[C@H]2[C@@H]([C@@H]([C@@H]1O2)C(=O)O)C(=O)O

> <PUBCHEM_CACTVS_TPSA>
83.8

> <PUBCHEM_MONOISOTOPIC_WEIGHT>
186.053

> <PUBCHEM_TOTAL_CHARGE>
0

> <PUBCHEM_HEAVY_ATOM_COUNT>
13

> <PUBCHEM_ATOM_DEF_STEREO_COUNT>
4

> <PUBCHEM_ATOM_UDEF_STEREO_COUNT>
0

> <PUBCHEM_BOND_DEF_STEREO_COUNT>
0

> <PUBCHEM_BOND_UDEF_STEREO_COUNT>
0

> <PUBCHEM_ISOTOPIC_ATOM_COUNT>
0

> <PUBCHEM_COMPONENT_COUNT>
1

> <PUBCHEM_CACTVS_TAUTO_COUNT>
-1

> <PUBCHEM_COORDINATE_TYPE>
1
5
255

> <PUBCHEM_BONDANNOTATIONS>
6  14  5
7  15  6
8  12  5
9  13  5

$$$$
10909559
  -OEChem-02061913492D

  9 10  0     1  0  0  0  0  0999 V2000
    4.6718    1.1504    0.0000 C   0  0  2  0  0  0  0  0  0  0  0  0
    4.4130    0.1845    0.0000 C   0  0  1  0  0  0  0  0  0  0  0  0
    3.9352    2.1330    0.0000 C   0  0  0  0  0  0  0  0  0  0  0  0
    2.6982    0.5321    0.0000 C   0  0  0  0  0  0  0  0  0  0  0  0
    3.0403   -0.4076    0.0000 C   0  0  0  0  0  0  0  0  0  0  0  0
    6.0707    0.6416    0.0000 C   0  0  0  0  0  0  0  0  0  0  0  0
    5.8119   -0.3243    0.0000 C   0  0  0  0  0  0  0  0  0  0  0  0
    2.6176   -1.3139    0.0000 C   0  0  0  0  0  0  0  0  0  0  0  0
    3.1912   -2.1330    0.0000 C   0  0  0  0  0  0  0  0  0  0  0  0
  1  3  1  0  0  0  0
  1  4  1  0  0  0  0
  1  6  1  0  0  0  0
  2  3  1  0  0  0  0
  2  5  1  0  0  0  0
  2  7  1  0  0  0  0
  4  5  1  0  0  0  0
  5  8  2  0  0  0  0
  6  7  2  0  0  0  0
  8  9  1  0  0  0  0
M  END
> <PUBCHEM_COMPOUND_CID>
10909559

> <PUBCHEM_COMPOUND_CANONICALIZED>
1

> <PUBCHEM_CACTVS_COMPLEXITY>
175

> <PUBCHEM_CACTVS_HBOND_ACCEPTOR>
0

> <PUBCHEM_CACTVS_HBOND_DONOR>
0

> <PUBCHEM_CACTVS_ROTATABLE_BOND>
0

> <PUBCHEM_CACTVS_SUBSKEYS>
AAADccBwAAAAAAAAAAAAAAAAAAAAAYIAAAAgAAAAAAAAAAAAAAAAGAAAAAAADQCAAAACAAAAAACAAiBCAAAAAAAgAAAICAAAAAgAAAIAAQAAAAAAgAAIAAMAAAAOAAAAAAAAAAAAAAAAAAAAAQAAAAAAAA==

> <PUBCHEM_IUPAC_OPENEYE_NAME>
(1~{R},4~{R},5~{Z})-5-ethylidenebicyclo[2.2.1]hept-2-ene

> <PUBCHEM_IUPAC_CAS_NAME>
(1~{R},4~{R},5~{Z})-5-ethylidenebicyclo[2.2.1]hept-2-ene

> <PUBCHEM_IUPAC_NAME>
(1~{R},4~{R},5~{Z})-5-ethylidenebicyclo[2.2.1]hept-2-ene

> <PUBCHEM_IUPAC_SYSTEMATIC_NAME>
(1~{R},4~{R},5~{Z})-5-ethylidenebicyclo[2.2.1]hept-2-ene

> <PUBCHEM_IUPAC_TRADITIONAL_NAME>
(1~{R},4~{R},5~{Z})-5-ethylidenebicyclo[2.2.1]hept-2-ene

> <PUBCHEM_IUPAC_INCHI>
InChI=1S/C9H12/c1-2-8-5-7-3-4-9(8)6-7/h2-4,7,9H,5-6H2,1H3/b8-2-/t7-,9-/m0/s1

> <PUBCHEM_IUPAC_INCHIKEY>
OJOWICOBYCXEKR-GNZAQCEWSA-N

> <PUBCHEM_XLOGP3_AA>
2.2

> <PUBCHEM_EXACT_MASS>
120.094

> <PUBCHEM_MOLECULAR_FORMULA>
C9H12

> <PUBCHEM_MOLECULAR_WEIGHT>
120.195

> <PUBCHEM_OPENEYE_CAN_SMILES>
CC=C1CC2CC1C=C2

> <PUBCHEM_OPENEYE_ISO_SMILES>
C/C=C\1/C[C@H]2C[C@@H]1C=C2

> <PUBCHEM_CACTVS_TPSA>
0

> <PUBCHEM_MONOISOTOPIC_WEIGHT>
120.094

> <PUBCHEM_TOTAL_CHARGE>
0

> <PUBCHEM_HEAVY_ATOM_COUNT>
9

> <PUBCHEM_ATOM_DEF_STEREO_COUNT>
2

> <PUBCHEM_ATOM_UDEF_STEREO_COUNT>
0

> <PUBCHEM_BOND_DEF_STEREO_COUNT>
1

> <PUBCHEM_BOND_UDEF_STEREO_COUNT>
0

> <PUBCHEM_ISOTOPIC_ATOM_COUNT>
0

> <PUBCHEM_COMPONENT_COUNT>
1

> <PUBCHEM_CACTVS_TAUTO_COUNT>
-1

> <PUBCHEM_COORDINATE_TYPE>
1
5
255

> <PUBCHEM_BONDANNOTATIONS>
1  10  6
2  11  5

$$$$
7111
  -OEChem-02061913072D

 14 15  0     0  0  0  0  0  0999 V2000
    2.8660   -3.5000    0.0000 N   0  0  0  0  0  0  0  0  0  0  0  0
    2.8660    3.5000    0.0000 N   0  0  0  0  0  0  0  0  0  0  0  0
    2.8660    0.5000    0.0000 C   0  0  0  0  0  0  0  0  0  0  0  0
    2.8660   -0.5000    0.0000 C   0  0  0  0  0  0  0  0  0  0  0  0
    3.7320    1.0000    0.0000 C   0  0  0  0  0  0  0  0  0  0  0  0
    2.0000   -1.0000    0.0000 C   0  0  0  0  0  0  0  0  0  0  0  0
    3.7320   -1.0000    0.0000 C   0  0  0  0  0  0  0  0  0  0  0  0
    2.0000    1.0000    0.0000 C   0  0  0  0  0  0  0  0  0  0  0  0
    2.8660   -2.5000    0.0000 C   0  0  0  0  0  0  0  0  0  0  0  0
    2.8660    2.5000    0.0000 C   0  0  0  0  0  0  0  0  0  0  0  0
    3.7320    2.0000    0.0000 C   0  0  0  0  0  0  0  0  0  0  0  0
    2.0000   -2.0000    0.0000 C   0  0  0  0  0  0  0  0  0  0  0  0
    2.0000    2.0000    0.0000 C   0  0  0  0  0  0  0  0  0  0  0  0
    3.7320   -2.0000    0.0000 C   0  0  0  0  0  0  0  0  0  0  0  0
  1  9  1  0  0  0  0
  2 10  1  0  0  0  0
  3  4  1  0  0  0  0
  3  5  2  0  0  0  0
  3  8  1  0  0  0  0
  4  6  2  0  0  0  0
  4  7  1  0  0  0  0
  5 11  1  0  0  0  0
  6 12  1  0  0  0  0
  7 14  2  0  0  0  0
  8 13  2  0  0  0  0
  9 12  2  0  0  0  0
  9 14  1  0  0  0  0
 10 11  2  0  0  0  0
 10 13  1  0  0  0  0
M  END
> <PUBCHEM_COMPOUND_CID>
7111

> <PUBCHEM_COMPOUND_CANONICALIZED>
1

> <PUBCHEM_CACTVS_COMPLEXITY>
145

> <PUBCHEM_CACTVS_HBOND_ACCEPTOR>
2

> <PUBCHEM_CACTVS_HBOND_DONOR>
2

> <PUBCHEM_CACTVS_ROTATABLE_BOND>
1

> <PUBCHEM_CACTVS_SUBSKEYS>
AAADccBzAAAAAAAAAAAAAAAAAAAAAAAAAAAwYAAAAAAAAAABQAAAHAAQAAAADAiBGAAwwIBAAACAAiRCQACCAAAgAgAIiAAAZIgIICKAkZGAIABgkAAIyAcQgMAOiAAAAAAAAAAQAAAAAAAAAAAAAAAAAA==

> <PUBCHEM_IUPAC_OPENEYE_NAME>
benzidine

> <PUBCHEM_IUPAC_CAS_NAME>
4-(4-aminophenyl)aniline

> <PUBCHEM_IUPAC_NAME>
4-(4-aminophenyl)aniline

> <PUBCHEM_IUPAC_SYSTEMATIC_NAME>
4-(4-aminophenyl)aniline

> <PUBCHEM_IUPAC_TRADITIONAL_NAME>
benzidine

> <PUBCHEM_IUPAC_INCHI>
InChI=1S/C12H12N2/c13-11-5-1-9(2-6-11)10-3-7-12(14)8-4-10/h1-8H,13-14H2

> <PUBCHEM_IUPAC_INCHIKEY>
HFACYLZERDEVSX-UHFFFAOYSA-N

> <PUBCHEM_XLOGP3>
1.3

> <PUBCHEM_EXACT_MASS>
184.1

> <PUBCHEM_MOLECULAR_FORMULA>
C12H12N2

> <PUBCHEM_MOLECULAR_WEIGHT>
184.242

> <PUBCHEM_OPENEYE_CAN_SMILES>
C1=CC(=CC=C1C2=CC=C(C=C2)N)N

> <PUBCHEM_OPENEYE_ISO_SMILES>
C1=CC(=CC=C1C2=CC=C(C=C2)N)N

> <PUBCHEM_CACTVS_TPSA>
52

> <PUBCHEM_MONOISOTOPIC_WEIGHT>
184.1

> <PUBCHEM_TOTAL_CHARGE>
0

> <PUBCHEM_HEAVY_ATOM_COUNT>
14

> <PUBCHEM_ATOM_DEF_STEREO_COUNT>
0

> <PUBCHEM_ATOM_UDEF_STEREO_COUNT>
0

> <PUBCHEM_BOND_DEF_STEREO_COUNT>
0

> <PUBCHEM_BOND_UDEF_STEREO_COUNT>
0

> <PUBCHEM_ISOTOPIC_ATOM_COUNT>
0

> <PUBCHEM_COMPONENT_COUNT>
1

> <PUBCHEM_CACTVS_TAUTO_COUNT>
-1

> <PUBCHEM_COORDINATE_TYPE>
1
5
255

> <PUBCHEM_BONDANNOTATIONS>
10  11  8
10  13  8
3  5  8
3  8  8
4  6  8
4  7  8
5  11  8
6  12  8
7  14  8
8  13  8
9  12  8
9  14  8

$$$$
936
  -OEChem-02061913062D

  9  9  0     0  0  0  0  0  0999 V2000
    2.0000    1.4400    0.0000 O   0  0  0  0  0  0  0  0  0  0  0  0
    3.7320   -1.5600    0.0000 N   0  0  0  0  0  0  0  0  0  0  0  0
    3.7320    1.4400    0.0000 N   0  0  0  0  0  0  0  0  0  0  0  0
    2.8660   -0.0600    0.0000 C   0  0  0  0  0  0  0  0  0  0  0  0
    2.0000   -0.5600    0.0000 C   0  0  0  0  0  0  0  0  0  0  0  0
    3.7320   -0.5600    0.0000 C   0  0  0  0  0  0  0  0  0  0  0  0
    2.0000   -1.5600    0.0000 C   0  0  0  0  0  0  0  0  0  0  0  0
    2.8660    0.9400    0.0000 C   0  0  0  0  0  0  0  0  0  0  0  0
    2.8660   -2.0600    0.0000 C   0  0  0  0  0  0  0  0  0  0  0  0
  1  8  2  0  0  0  0
  2  6  1  0  0  0  0
  2  9  2  0  0  0  0
  3  8  1  0  0  0  0
  4  5  1  0  0  0  0
  4  6  2  0  0  0  0
  4  8  1  0  0  0  0
  5  7  2  0  0  0  0
  7  9  1  0  0  0  0
M  END
> <PUBCHEM_COMPOUND_CID>
936

> <PUBCHEM_COMPOUND_CANONICALIZED>
1

> <PUBCHEM_CACTVS_COMPLEXITY>
114

> <PUBCHEM_CACTVS_HBOND_ACCEPTOR>
2

> <PUBCHEM_CACTVS_HBOND_DONOR>
1

> <PUBCHEM_CACTVS_ROTATABLE_BOND>
1

> <PUBCHEM_CACTVS_SUBSKEYS>
AAADcYBjIAAAAAAAAAAAAAAAAAAAAAAAAAAsAAAAAAAAAAABgAAAHgAQAAAADADBmgQ8gJJIEACoAjF3VACCgCA1AiAI2CE4ZNgIIPrA1ZGEIYhggADIycYYAQAMAAAAAAAAAAAAAAAAAAAAAAAAAAAAAA==

> <PUBCHEM_IUPAC_OPENEYE_NAME>
pyridine-3-carboxamide

> <PUBCHEM_IUPAC_CAS_NAME>
3-pyridinecarboxamide

> <PUBCHEM_IUPAC_NAME>
pyridine-3-carboxamide

> <PUBCHEM_IUPAC_SYSTEMATIC_NAME>
pyridine-3-carboxamide

> <PUBCHEM_IUPAC_TRADITIONAL_NAME>
nicotinamide

> <PUBCHEM_IUPAC_INCHI>
InChI=1S/C6H6N2O/c7-6(9)5-2-1-3-8-4-5/h1-4H,(H2,7,9)

> <PUBCHEM_IUPAC_INCHIKEY>
DFPAKSUCGFBDDF-UHFFFAOYSA-N

> <PUBCHEM_XLOGP3>
-0.4

> <PUBCHEM_EXACT_MASS>
122.048

> <PUBCHEM_MOLECULAR_FORMULA>
C6H6N2O

> <PUBCHEM_MOLECULAR_WEIGHT>
122.127

> <PUBCHEM_OPENEYE_CAN_SMILES>
C1=CC(=CN=C1)C(=O)N

> <PUBCHEM_OPENEYE_ISO_SMILES>
C1=CC(=CN=C1)C(=O)N

> <PUBCHEM_CACTVS_TPSA>
56

> <PUBCHEM_MONOISOTOPIC_WEIGHT>
122.048

> <PUBCHEM_TOTAL_CHARGE>
0

> <PUBCHEM_HEAVY_ATOM_COUNT>
9

> <PUBCHEM_ATOM_DEF_STEREO_COUNT>
0

> <PUBCHEM_ATOM_UDEF_STEREO_COUNT>
0

> <PUBCHEM_BOND_DEF_STEREO_COUNT>
0

> <PUBCHEM_BOND_UDEF_STEREO_COUNT>
0

> <PUBCHEM_ISOTOPIC_ATOM_COUNT>
0

> <PUBCHEM_COMPONENT_COUNT>
1

> <PUBCHEM_CACTVS_TAUTO_COUNT>
-1

> <PUBCHEM_COORDINATE_TYPE>
1
5
255

> <PUBCHEM_BONDANNOTATIONS>
2  6  8
2  9  8
4  5  8
4  6  8
5  7  8
7  9  8

$$$$
165675
  -OEChem-02061913062D

 11 11  0     1  0  0  0  0  0999 V2000
    2.5369    0.7500    0.0000 O   0  0  0  0  0  0  0  0  0  0  0  0
    4.2690    0.7500    0.0000 C   0  0  2  0  0  0  0  0  0  0  0  0
    3.4030    0.2500    0.0000 C   0  0  2  0  0  0  0  0  0  0  0  0
    5.1350    0.2500    0.0000 C   0  0  0  0  0  0  0  0  0  0  0  0
    4.2690   -1.2500    0.0000 C   0  0  2  0  0  0  0  0  0  0  0  0
    3.4030   -0.7500    0.0000 C   0  0  0  0  0  0  0  0  0  0  0  0
    5.1350   -0.7500    0.0000 C   0  0  0  0  0  0  0  0  0  0  0  0
    4.2690    1.7500    0.0000 C   0  0  0  0  0  0  0  0  0  0  0  0
    4.2690   -2.2500    0.0000 C   0  0  0  0  0  0  0  0  0  0  0  0
    5.1350    2.2500    0.0000 C   0  0  0  0  0  0  0  0  0  0  0  0
    3.4030    2.2500    0.0000 C   0  0  0  0  0  0  0  0  0  0  0  0
  3  1  1  6  0  0  0
  2  3  1  0  0  0  0
  2  4  1  0  0  0  0
  2  8  1  1  0  0  0
  3  6  1  0  0  0  0
  4  7  1  0  0  0  0
  5  6  1  0  0  0  0
  5  7  1  0  0  0  0
  5  9  1  6  0  0  0
  8 10  1  0  0  0  0
  8 11  1  0  0  0  0
M  END
> <PUBCHEM_COMPOUND_CID>
165675

> <PUBCHEM_COMPOUND_CANONICALIZED>
1

> <PUBCHEM_CACTVS_COMPLEXITY>
120

> <PUBCHEM_CACTVS_HBOND_ACCEPTOR>
1

> <PUBCHEM_CACTVS_HBOND_DONOR>
1

> <PUBCHEM_CACTVS_ROTATABLE_BOND>
1

> <PUBCHEM_CACTVS_SUBSKEYS>
AAADceBwIAAAAAAAAAAAAAAAAAAAAAAAAAAwAAAAAAAAAAAAAAAAGgAACAAADRSggAICAAAAAgAAAAAAAAAAAAAAAAAAAAAAAAAAEAIAAAAAQAAEAAAAAAGAwPAOgAAAAAAAAACAAAIAABAAAAAAAAAAAA==

> <PUBCHEM_IUPAC_OPENEYE_NAME>
(1~{S},2~{R},5~{S})-2-isopropyl-5-methyl-cyclohexanol

> <PUBCHEM_IUPAC_CAS_NAME>
(1~{S},2~{R},5~{S})-5-methyl-2-propan-2-yl-1-cyclohexanol

> <PUBCHEM_IUPAC_NAME>
(1~{S},2~{R},5~{S})-5-methyl-2-propan-2-ylcyclohexan-1-ol

> <PUBCHEM_IUPAC_SYSTEMATIC_NAME>
(1~{S},2~{R},5~{S})-5-methyl-2-propan-2-yl-cyclohexan-1-ol

> <PUBCHEM_IUPAC_TRADITIONAL_NAME>
(1~{S},2~{R},5~{S})-2-isopropyl-5-methyl-cyclohexanol

> <PUBCHEM_IUPAC_INCHI>
InChI=1S/C10H20O/c1-7(2)9-5-4-8(3)6-10(9)11/h7-11H,4-6H2,1-3H3/t8-,9+,10-/m0/s1

> <PUBCHEM_IUPAC_INCHIKEY>
NOOLISFMXDJSKH-AEJSXWLSSA-N

> <PUBCHEM_XLOGP3_AA>
3

> <PUBCHEM_EXACT_MASS>
156.151

> <PUBCHEM_MOLECULAR_FORMULA>
C10H20O

> <PUBCHEM_MOLECULAR_WEIGHT>
156.269

> <PUBCHEM_OPENEYE_CAN_SMILES>
CC1CCC(C(C1)O)C(C)C

> <PUBCHEM_OPENEYE_ISO_SMILES>
C[C@H]1CC[C@@H]([C@H](C1)O)C(C)C

> <PUBCHEM_CACTVS_TPSA>
20.2

> <PUBCHEM_MONOISOTOPIC_WEIGHT>
156.151

> <PUBCHEM_TOTAL_CHARGE>
0

> <PUBCHEM_HEAVY_ATOM_COUNT>
11

> <PUBCHEM_ATOM_DEF_STEREO_COUNT>
3

> <PUBCHEM_ATOM_UDEF_STEREO_COUNT>
0

> <PUBCHEM_BOND_DEF_STEREO_COUNT>
0

> <PUBCHEM_BOND_UDEF_STEREO_COUNT>
0

> <PUBCHEM_ISOTOPIC_ATOM_COUNT>
0

> <PUBCHEM_COMPONENT_COUNT>
1

> <PUBCHEM_CACTVS_TAUTO_COUNT>
-1

> <PUBCHEM_COORDINATE_TYPE>
1
5
255

> <PUBCHEM_BONDANNOTATIONS>
3  1  6
2  8  5
5  9  6

$$$$
134715773
  -OEChem-02061915122D

 29 31  0     1  0  0  0  0  0999 V2000
    2.0000   -4.8465    0.0000 O   0  0  0  0  0  0  0  0  0  0  0  0
    5.4641    1.1535    0.0000 C   0  0  2  0  0  0  0  0  0  0  0  0
    6.4103    1.4582    0.0000 C   0  0  2  0  0  0  0  0  0  0  0  0
    5.4641    0.1535    0.0000 C   0  0  1  0  0  0  0  0  0  0  0  0
    6.9939    0.6535    0.0000 C   0  0  0  0  0  0  0  0  0  0  0  0
    6.4103   -0.1512    0.0000 C   0  0  0  0  0  0  0  0  0  0  0  0
    4.5981    1.6535    0.0000 C   0  0  0  0  0  0  0  0  0  0  0  0
    6.7210    2.4087    0.0000 C   0  0  2  0  0  0  0  0  0  0  0  0
    4.5981   -0.3465    0.0000 C   0  0  0  0  0  0  0  0  0  0  0  0
    5.4641    2.1535    0.0000 C   0  0  0  0  0  0  0  0  0  0  0  0
    3.7320    1.1535    0.0000 C   0  0  0  0  0  0  0  0  0  0  0  0
    3.7320    0.1535    0.0000 C   0  0  0  0  0  0  0  0  0  0  0  0
    6.0531    3.1530    0.0000 C   0  0  0  0  0  0  0  0  0  0  0  0
    7.6995    2.6150    0.0000 C   0  0  0  0  0  0  0  0  0  0  0  0
    4.5981   -1.3465    0.0000 C   0  0  0  0  0  0  0  0  0  0  0  0
    8.0102    3.5655    0.0000 C   0  0  0  0  0  0  0  0  0  0  0  0
    3.7320   -1.8465    0.0000 C   0  0  0  0  0  0  0  0  0  0  0  0
    8.9887    3.7717    0.0000 C   0  0  1  0  0  0  0  0  0  0  0  0
    3.7320   -2.8465    0.0000 C   0  0  0  0  0  0  0  0  0  0  0  0
    9.2993    4.7222    0.0000 C   0  0  0  0  0  0  0  0  0  0  0  0
    2.8660   -3.3465    0.0000 C   0  0  0  0  0  0  0  0  0  0  0  0
    9.6565    3.0274    0.0000 C   0  0  0  0  0  0  0  0  0  0  0  0
    4.5981   -3.3465    0.0000 C   0  0  0  0  0  0  0  0  0  0  0  0
    2.8660   -4.3465    0.0000 C   0  0  2  0  0  0  0  0  0  0  0  0
    4.5981   -4.3465    0.0000 C   0  0  0  0  0  0  0  0  0  0  0  0
    3.7320   -4.8465    0.0000 C   0  0  0  0  0  0  0  0  0  0  0  0
   10.2778    4.9284    0.0000 C   0  0  0  0  0  0  0  0  0  0  0  0
    8.6315    5.4665    0.0000 C   0  0  0  0  0  0  0  0  0  0  0  0
    5.4641   -2.8465    0.0000 C   0  0  0  0  0  0  0  0  0  0  0  0
 24  1  1  6  0  0  0
  2  3  1  0  0  0  0
  2  4  1  0  0  0  0
  2  7  1  0  0  0  0
  2 10  1  1  0  0  0
  3  5  1  0  0  0  0
  3  8  1  0  0  0  0
  4  6  1  0  0  0  0
  4  9  1  0  0  0  0
  5  6  1  0  0  0  0
  7 11  1  0  0  0  0
  8 13  1  6  0  0  0
  8 14  1  0  0  0  0
  9 12  1  0  0  0  0
  9 15  2  0  0  0  0
 11 12  1  0  0  0  0
 14 16  2  3  0  0  0
 15 17  1  0  0  0  0
 16 18  1  0  0  0  0
 17 19  2  0  0  0  0
 18 20  1  0  0  0  0
 18 22  1  1  0  0  0
 19 21  1  0  0  0  0
 19 23  1  0  0  0  0
 20 27  1  0  0  0  0
 20 28  1  0  0  0  0
 21 24  1  0  0  0  0
 23 25  1  0  0  0  0
 23 29  2  0  0  0  0
 24 26  1  0  0  0  0
 25 26  1  0  0  0  0
M  ISO  3  52   2  71   2  72   2
M  END
> <PUBCHEM_COMPOUND_CID>
134715773

> <PUBCHEM_COMPOUND_CANONICALIZED>
1

> <PUBCHEM_CACTVS_COMPLEXITY>
678

> <PUBCHEM_CACTVS_HBOND_ACCEPTOR>
1

> <PUBCHEM_CACTVS_HBOND_DONOR>
1

> <PUBCHEM_CACTVS_ROTATABLE_BOND>
5

> <PUBCHEM_CACTVS_SUBSKEYS>
AAADcfB4IAAAAAAAAAAAAAAAAAAAAYAAAAAwYAAAAAAAAGAAAAAAGgAACAAADxSggAICAAAAAgCAAiBCAAAAAAAgAAAICAAAAAgIEAIAAQAAQAAEwAAIgAOAwMAPgAAAAAAAAAAAAAAAACAAAQAACAAAAA==

> <PUBCHEM_IUPAC_OPENEYE_NAME>
(1~{S},3~{Z})-3-[(2~{E})-2-[(1~{R},3~{a}~{S},7~{a}~{R})-7~{a}-methyl-1-[(1~{R},4~{R})-1,4,5-trimethylhex-2-enyl]-2,3,3~{a},5,6,7-hexahydro-1~{H}-inden-4-ylidene]-1-deuterio-ethylidene]-4-(dideuteriomethylene)cyclohexanol

> <PUBCHEM_IUPAC_CAS_NAME>
(1~{S},3~{Z})-3-[(2~{E})-2-[(1~{R},3~{a}~{S},7~{a}~{R})-1-[(2~{R},5~{R})-5,6-dimethylhept-3-en-2-yl]-7~{a}-methyl-2,3,3~{a},5,6,7-hexahydro-1~{H}-inden-4-ylidene]-1-deuterioethylidene]-4-(dideuteriomethylidene)-1-cyclohexanol

> <PUBCHEM_IUPAC_NAME>
(1~{S},3~{Z})-3-[(2~{E})-2-[(1~{R},3~{a}~{S},7~{a}~{R})-1-[(2~{R},5~{R})-5,6-dimethylhept-3-en-2-yl]-7~{a}-methyl-2,3,3~{a},5,6,7-hexahydro-1~{H}-inden-4-ylidene]-1-deuterioethylidene]-4-(dideuteriomethylidene)cyclohexan-1-ol

> <PUBCHEM_IUPAC_SYSTEMATIC_NAME>
(1~{S},3~{Z})-3-[(2~{E})-2-[(1~{R},3~{a}~{S},7~{a}~{R})-1-[(2~{R},5~{R})-5,6-dimethylhept-3-en-2-yl]-7~{a}-methyl-2,3,3~{a},5,6,7-hexahydro-1~{H}-inden-4-ylidene]-1-deuterio-ethylidene]-4-(dideuteriomethylidene)cyclohexan-1-ol

> <PUBCHEM_IUPAC_TRADITIONAL_NAME>
(1~{S},3~{Z})-3-[(2~{E})-2-[(1~{R},3~{a}~{S},7~{a}~{R})-7~{a}-methyl-1-[(1~{R},4~{R})-1,4,5-trimethylhex-2-enyl]-2,3,3~{a},5,6,7-hexahydro-1~{H}-inden-4-ylidene]-1-deuterio-ethylidene]-4-(dideuteriomethylene)cyclohexanol

> <PUBCHEM_IUPAC_INCHI>
InChI=1S/C28H44O/c1-19(2)20(3)9-10-22(5)26-15-16-27-23(8-7-17-28(26,27)6)12-13-24-18-25(29)14-11-21(24)4/h9-10,12-13,19-20,22,25-27,29H,4,7-8,11,14-18H2,1-3,5-6H3/b10-9?,23-12+,24-13-/t20-,22+,25-,26+,27-,28+/m0/s1/i4D2,13D

> <PUBCHEM_IUPAC_INCHIKEY>
MECHNRXZTMCUDQ-HFBGEFMISA-N

> <PUBCHEM_XLOGP3_AA>
7.4

> <PUBCHEM_EXACT_MASS>
399.358

> <PUBCHEM_MOLECULAR_FORMULA>
C28H44O

> <PUBCHEM_MOLECULAR_WEIGHT>
399.677

> <PUBCHEM_OPENEYE_CAN_SMILES>
CC(C)C(C)C=CC(C)C1CCC2C1(CCCC2=CC=C3CC(CCC3=C)O)C

> <PUBCHEM_OPENEYE_ISO_SMILES>
[2H]C(=C\1CC[C@@H](C/C1=C(\[2H])/C=C/2\CCC[C@]3([C@H]2CC[C@@H]3[C@H](C)C=C[C@H](C)C(C)C)C)O)[2H]

> <PUBCHEM_CACTVS_TPSA>
20.2

> <PUBCHEM_MONOISOTOPIC_WEIGHT>
399.358

> <PUBCHEM_TOTAL_CHARGE>
0

> <PUBCHEM_HEAVY_ATOM_COUNT>
29

> <PUBCHEM_ATOM_DEF_STEREO_COUNT>
6

> <PUBCHEM_ATOM_UDEF_STEREO_COUNT>
0

> <PUBCHEM_BOND_DEF_STEREO_COUNT>
2

> <PUBCHEM_BOND_UDEF_STEREO_COUNT>
1

> <PUBCHEM_ISOTOPIC_ATOM_COUNT>
3

> <PUBCHEM_COMPONENT_COUNT>
1

> <PUBCHEM_CACTVS_TAUTO_COUNT>
-1

> <PUBCHEM_COORDINATE_TYPE>
1
5
255

> <PUBCHEM_BONDANNOTATIONS>
24  1  6
14  16  1
18  22  5
2  10  5
3  30  6
4  31  6
8  13  6

$$$$
3314
  -OEChem-02061913062D

 12 12  0     0  0  0  0  0  0999 V2000
    4.2690    2.0000    0.0000 O   0  0  0  0  0  0  0  0  0  0  0  0
    2.5369    1.0000    0.0000 O   0  0  0  0  0  0  0  0  0  0  0  0
    5.1350   -0.5000    0.0000 C   0  0  0  0  0  0  0  0  0  0  0  0
    6.0010   -1.0000    0.0000 C   0  0  0  0  0  0  0  0  0  0  0  0
    5.1350    0.5000    0.0000 C   0  0  0  0  0  0  0  0  0  0  0  0
    4.2690    1.0000    0.0000 C   0  0  0  0  0  0  0  0  0  0  0  0
    4.2690   -1.0000    0.0000 C   0  0  0  0  0  0  0  0  0  0  0  0
    3.4030    0.5000    0.0000 C   0  0  0  0  0  0  0  0  0  0  0  0
    3.4030   -0.5000    0.0000 C   0  0  0  0  0  0  0  0  0  0  0  0
    6.0010   -2.0000    0.0000 C   0  0  0  0  0  0  0  0  0  0  0  0
    5.1350    2.5000    0.0000 C   0  0  0  0  0  0  0  0  0  0  0  0
    6.8671   -2.5000    0.0000 C   0  0  0  0  0  0  0  0  0  0  0  0
  1  6  1  0  0  0  0
  1 11  1  0  0  0  0
  2  8  1  0  0  0  0
  3  4  1  0  0  0  0
  3  5  2  0  0  0  0
  3  7  1  0  0  0  0
  4 10  1  0  0  0  0
  5  6  1  0  0  0  0
  6  8  2  0  0  0  0
  7  9  2  0  0  0  0
  8  9  1  0  0  0  0
 10 12  2  0  0  0  0
M  END
> <PUBCHEM_COMPOUND_CID>
3314

> <PUBCHEM_COMPOUND_CANONICALIZED>
1

> <PUBCHEM_CACTVS_COMPLEXITY>
145

> <PUBCHEM_CACTVS_HBOND_ACCEPTOR>
2

> <PUBCHEM_CACTVS_HBOND_DONOR>
1

> <PUBCHEM_CACTVS_ROTATABLE_BOND>
3

> <PUBCHEM_CACTVS_SUBSKEYS>
AAADccBwMAAAAAAAAAAAAAAAAAAAAAAAAAAwAAAAAAAAAAABAAAAGgAACAAADASAmAIyBoAABgCAAiBCAAACCAAgIAAIiAAGiIgNJiKGMRqAcCMkwBELuAeAwLAOIAABAAAAQABAAAIAAACAAAAAAAAAAA==

> <PUBCHEM_IUPAC_OPENEYE_NAME>
4-allyl-2-methoxy-phenol

> <PUBCHEM_IUPAC_CAS_NAME>
2-methoxy-4-prop-2-enylphenol

> <PUBCHEM_IUPAC_NAME>
2-methoxy-4-prop-2-enylphenol

> <PUBCHEM_IUPAC_SYSTEMATIC_NAME>
2-methoxy-4-prop-2-enyl-phenol

> <PUBCHEM_IUPAC_TRADITIONAL_NAME>
eugenol

> <PUBCHEM_IUPAC_INCHI>
InChI=1S/C10H12O2/c1-3-4-8-5-6-9(11)10(7-8)12-2/h3,5-7,11H,1,4H2,2H3

> <PUBCHEM_IUPAC_INCHIKEY>
RRAFCDWBNXTKKO-UHFFFAOYSA-N

> <PUBCHEM_XLOGP3>
2

> <PUBCHEM_EXACT_MASS>
164.084

> <PUBCHEM_MOLECULAR_FORMULA>
C10H12O2

> <PUBCHEM_MOLECULAR_WEIGHT>
164.204

> <PUBCHEM_OPENEYE_CAN_SMILES>
COC1=C(C=CC(=C1)CC=C)O

> <PUBCHEM_OPENEYE_ISO_SMILES>
COC1=C(C=CC(=C1)CC=C)O

> <PUBCHEM_CACTVS_TPSA>
29.5

> <PUBCHEM_MONOISOTOPIC_WEIGHT>
164.084

> <PUBCHEM_TOTAL_CHARGE>
0

> <PUBCHEM_HEAVY_ATOM_COUNT>
12

> <PUBCHEM_ATOM_DEF_STEREO_COUNT>
0

> <PUBCHEM_ATOM_UDEF_STEREO_COUNT>
0

> <PUBCHEM_BOND_DEF_STEREO_COUNT>
0

> <PUBCHEM_BOND_UDEF_STEREO_COUNT>
0

> <PUBCHEM_ISOTOPIC_ATOM_COUNT>
0

> <PUBCHEM_COMPONENT_COUNT>
1

> <PUBCHEM_CACTVS_TAUTO_COUNT>
-1

> <PUBCHEM_COORDINATE_TYPE>
1
5
255

> <PUBCHEM_BONDANNOTATIONS>
3  5  8
3  7  8
5  6  8
6  8  8
7  9  8
8  9  8

$$$$
16131300
  -OEChem-02061913552D

122132  0     1  0  0  0  0  0999 V2000
   12.9292    1.0000    0.0000 O   0  0  0  0  0  0  0  0  0  0  0  0
   12.9292   -2.0000    0.0000 O   0  0  0  0  0  0  0  0  0  0  0  0
   11.1972   -1.0000    0.0000 O   0  0  0  0  0  0  0  0  0  0  0  0
   14.6613   -1.0000    0.0000 O   0  0  0  0  0  0  0  0  0  0  0  0
   14.6613    1.0000    0.0000 O   0  0  0  0  0  0  0  0  0  0  0  0
   11.1972    2.0000    0.0000 O   0  0  0  0  0  0  0  0  0  0  0  0
   11.1972   -2.0000    0.0000 O   0  0  0  0  0  0  0  0  0  0  0  0
   10.3312    0.5000    0.0000 O   0  0  0  0  0  0  0  0  0  0  0  0
   15.5273    0.5000    0.0000 O   0  0  0  0  0  0  0  0  0  0  0  0
   13.7953    2.5000    0.0000 O   0  0  0  0  0  0  0  0  0  0  0  0
    9.4651    2.0000    0.0000 O   0  0  0  0  0  0  0  0  0  0  0  0
   10.3312   -5.5000    0.0000 O   0  0  0  0  0  0  0  0  0  0  0  0
    6.8671   -0.5000    0.0000 O   0  0  0  0  0  0  0  0  0  0  0  0
   17.2594   -3.5000    0.0000 O   0  0  0  0  0  0  0  0  0  0  0  0
   13.7953   -5.5000    0.0000 O   0  0  0  0  0  0  0  0  0  0  0  0
    8.5991   -3.5000    0.0000 O   0  0  0  0  0  0  0  0  0  0  0  0
   18.9914   -0.5000    0.0000 O   0  0  0  0  0  0  0  0  0  0  0  0
   18.1254    2.0000    0.0000 O   0  0  0  0  0  0  0  0  0  0  0  0
   12.0632   -6.5000    0.0000 O   0  0  0  0  0  0  0  0  0  0  0  0
    6.8671   -2.5000    0.0000 O   0  0  0  0  0  0  0  0  0  0  0  0
   16.3933    5.0000    0.0000 O   0  0  0  0  0  0  0  0  0  0  0  0
   18.9914   -2.5000    0.0000 O   0  0  0  0  0  0  0  0  0  0  0  0
   18.1254    4.0000    0.0000 O   0  0  0  0  0  0  0  0  0  0  0  0
   12.0632    5.5000    0.0000 O   0  0  0  0  0  0  0  0  0  0  0  0
    8.5991    5.5000    0.0000 O   0  0  0  0  0  0  0  0  0  0  0  0
   10.3312    6.5000    0.0000 O   0  0  0  0  0  0  0  0  0  0  0  0
   11.1972   -7.0000    0.0000 O   0  0  0  0  0  0  0  0  0  0  0  0
    6.0010   -2.0000    0.0000 O   0  0  0  0  0  0  0  0  0  0  0  0
   18.9914   -3.5000    0.0000 O   0  0  0  0  0  0  0  0  0  0  0  0
   18.9914    3.5000    0.0000 O   0  0  0  0  0  0  0  0  0  0  0  0
   11.1972    7.0000    0.0000 O   0  0  0  0  0  0  0  0  0  0  0  0
    8.5991   -9.5000    0.0000 O   0  0  0  0  0  0  0  0  0  0  0  0
    6.8671   -6.5000    0.0000 O   0  0  0  0  0  0  0  0  0  0  0  0
    2.5369   -1.0000    0.0000 O   0  0  0  0  0  0  0  0  0  0  0  0
    4.2690    2.0000    0.0000 O   0  0  0  0  0  0  0  0  0  0  0  0
   19.8574   -7.0000    0.0000 O   0  0  0  0  0  0  0  0  0  0  0  0
   16.3933   -7.0000    0.0000 O   0  0  0  0  0  0  0  0  0  0  0  0
    6.8671   -8.5000    0.0000 O   0  0  0  0  0  0  0  0  0  0  0  0
    2.5369    1.0000    0.0000 O   0  0  0  0  0  0  0  0  0  0  0  0
   22.4555    2.5000    0.0000 O   0  0  0  0  0  0  0  0  0  0  0  0
   20.7235   -0.5000    0.0000 O   0  0  0  0  0  0  0  0  0  0  0  0
   18.1254   -8.0000    0.0000 O   0  0  0  0  0  0  0  0  0  0  0  0
   22.4555    0.5000    0.0000 O   0  0  0  0  0  0  0  0  0  0  0  0
   13.7953    9.5000    0.0000 O   0  0  0  0  0  0  0  0  0  0  0  0
   15.5273    6.5000    0.0000 O   0  0  0  0  0  0  0  0  0  0  0  0
   15.5273    8.5000    0.0000 O   0  0  0  0  0  0  0  0  0  0  0  0
   12.9292   -1.0000    0.0000 C   0  0  1  0  0  0  0  0  0  0  0  0
   12.0632   -0.5000    0.0000 C   0  0  1  0  0  0  0  0  0  0  0  0
   13.7953   -0.5000    0.0000 C   0  0  2  0  0  0  0  0  0  0  0  0
   12.0632    0.5000    0.0000 C   0  0  1  0  0  0  0  0  0  0  0  0
   13.7953    0.5000    0.0000 C   0  0  3  0  0  0  0  0  0  0  0  0
   11.1972    1.0000    0.0000 C   0  0  0  0  0  0  0  0  0  0  0  0
   12.0632   -2.5000    0.0000 C   0  0  0  0  0  0  0  0  0  0  0  0
   10.3312   -0.5000    0.0000 C   0  0  0  0  0  0  0  0  0  0  0  0
   15.5273   -0.5000    0.0000 C   0  0  0  0  0  0  0  0  0  0  0  0
   14.6613    2.0000    0.0000 C   0  0  0  0  0  0  0  0  0  0  0  0
   12.0632   -3.5000    0.0000 C   0  0  0  0  0  0  0  0  0  0  0  0
    9.4651   -1.0000    0.0000 C   0  0  0  0  0  0  0  0  0  0  0  0
   16.3933   -1.0000    0.0000 C   0  0  0  0  0  0  0  0  0  0  0  0
   10.3312    2.5000    0.0000 C   0  0  0  0  0  0  0  0  0  0  0  0
   15.5273    2.5000    0.0000 C   0  0  0  0  0  0  0  0  0  0  0  0
   10.3312    3.5000    0.0000 C   0  0  0  0  0  0  0  0  0  0  0  0
   11.1972   -4.0000    0.0000 C   0  0  0  0  0  0  0  0  0  0  0  0
    8.5991   -0.5000    0.0000 C   0  0  0  0  0  0  0  0  0  0  0  0
   12.9292   -4.0000    0.0000 C   0  0  0  0  0  0  0  0  0  0  0  0
    9.4651   -2.0000    0.0000 C   0  0  0  0  0  0  0  0  0  0  0  0
   16.3933   -2.0000    0.0000 C   0  0  0  0  0  0  0  0  0  0  0  0
   17.2594   -0.5000    0.0000 C   0  0  0  0  0  0  0  0  0  0  0  0
   16.3933    2.0000    0.0000 C   0  0  0  0  0  0  0  0  0  0  0  0
   15.5273    3.5000    0.0000 C   0  0  0  0  0  0  0  0  0  0  0  0
   11.1972   -5.0000    0.0000 C   0  0  0  0  0  0  0  0  0  0  0  0
    7.7331   -1.0000    0.0000 C   0  0  0  0  0  0  0  0  0  0  0  0
   12.9292   -5.0000    0.0000 C   0  0  0  0  0  0  0  0  0  0  0  0
    8.5991   -2.5000    0.0000 C   0  0  0  0  0  0  0  0  0  0  0  0
   17.2594   -2.5000    0.0000 C   0  0  0  0  0  0  0  0  0  0  0  0
   18.1254   -1.0000    0.0000 C   0  0  0  0  0  0  0  0  0  0  0  0
   11.1972    4.0000    0.0000 C   0  0  0  0  0  0  0  0  0  0  0  0
    9.4651    4.0000    0.0000 C   0  0  0  0  0  0  0  0  0  0  0  0
   12.0632   -5.5000    0.0000 C   0  0  0  0  0  0  0  0  0  0  0  0
    7.7331   -2.0000    0.0000 C   0  0  0  0  0  0  0  0  0  0  0  0
   17.2594    2.5000    0.0000 C   0  0  0  0  0  0  0  0  0  0  0  0
   16.3933    4.0000    0.0000 C   0  0  0  0  0  0  0  0  0  0  0  0
   18.1254   -2.0000    0.0000 C   0  0  0  0  0  0  0  0  0  0  0  0
   17.2594    3.5000    0.0000 C   0  0  0  0  0  0  0  0  0  0  0  0
   11.1972    5.0000    0.0000 C   0  0  0  0  0  0  0  0  0  0  0  0
    9.4651    5.0000    0.0000 C   0  0  0  0  0  0  0  0  0  0  0  0
   10.3312    5.5000    0.0000 C   0  0  0  0  0  0  0  0  0  0  0  0
   10.3312   -6.5000    0.0000 C   0  0  0  0  0  0  0  0  0  0  0  0
    6.0010   -1.0000    0.0000 C   0  0  0  0  0  0  0  0  0  0  0  0
   18.1254   -4.0000    0.0000 C   0  0  0  0  0  0  0  0  0  0  0  0
   18.9914    2.5000    0.0000 C   0  0  0  0  0  0  0  0  0  0  0  0
    9.4651   -7.0000    0.0000 C   0  0  0  0  0  0  0  0  0  0  0  0
    5.1350   -0.5000    0.0000 C   0  0  0  0  0  0  0  0  0  0  0  0
   12.0632    6.5000    0.0000 C   0  0  0  0  0  0  0  0  0  0  0  0
   18.1254   -5.0000    0.0000 C   0  0  0  0  0  0  0  0  0  0  0  0
   19.8574    2.0000    0.0000 C   0  0  0  0  0  0  0  0  0  0  0  0
   12.9292    7.0000    0.0000 C   0  0  0  0  0  0  0  0  0  0  0  0
    8.5991   -6.5000    0.0000 C   0  0  0  0  0  0  0  0  0  0  0  0
    9.4651   -8.0000    0.0000 C   0  0  0  0  0  0  0  0  0  0  0  0
    5.1350    0.5000    0.0000 C   0  0  0  0  0  0  0  0  0  0  0  0
    4.2690   -1.0000    0.0000 C   0  0  0  0  0  0  0  0  0  0  0  0
   17.2594   -5.5000    0.0000 C   0  0  0  0  0  0  0  0  0  0  0  0
   18.9914   -5.5000    0.0000 C   0  0  0  0  0  0  0  0  0  0  0  0
   19.8574    1.0000    0.0000 C   0  0  0  0  0  0  0  0  0  0  0  0
   20.7235    2.5000    0.0000 C   0  0  0  0  0  0  0  0  0  0  0  0
    8.5991   -8.5000    0.0000 C   0  0  0  0  0  0  0  0  0  0  0  0
    7.7331   -7.0000    0.0000 C   0  0  0  0  0  0  0  0  0  0  0  0
    3.4030   -0.5000    0.0000 C   0  0  0  0  0  0  0  0  0  0  0  0
    4.2690    1.0000    0.0000 C   0  0  0  0  0  0  0  0  0  0  0  0
   18.9914   -6.5000    0.0000 C   0  0  0  0  0  0  0  0  0  0  0  0
   17.2594   -6.5000    0.0000 C   0  0  0  0  0  0  0  0  0  0  0  0
   13.7953    6.5000    0.0000 C   0  0  0  0  0  0  0  0  0  0  0  0
   12.9292    8.0000    0.0000 C   0  0  0  0  0  0  0  0  0  0  0  0
    7.7331   -8.0000    0.0000 C   0  0  0  0  0  0  0  0  0  0  0  0
    3.4030    0.5000    0.0000 C   0  0  0  0  0  0  0  0  0  0  0  0
   21.5895    2.0000    0.0000 C   0  0  0  0  0  0  0  0  0  0  0  0
   20.7235    0.5000    0.0000 C   0  0  0  0  0  0  0  0  0  0  0  0
   18.1254   -7.0000    0.0000 C   0  0  0  0  0  0  0  0  0  0  0  0
   21.5895    1.0000    0.0000 C   0  0  0  0  0  0  0  0  0  0  0  0
   13.7953    8.5000    0.0000 C   0  0  0  0  0  0  0  0  0  0  0  0
   14.6613    7.0000    0.0000 C   0  0  0  0  0  0  0  0  0  0  0  0
   14.6613    8.0000    0.0000 C   0  0  0  0  0  0  0  0  0  0  0  0
  1 50  1  0  0  0  0
  1 51  1  0  0  0  0
 47  2  1  1  0  0  0
  2 53  1  0  0  0  0
 48  3  1  6  0  0  0
  3 54  1  0  0  0  0
 49  4  1  6  0  0  0
  4 55  1  0  0  0  0
  5 51  1  0  0  0  0
  5 56  1  0  0  0  0
  6 52  1  0  0  0  0
  6 60  1  0  0  0  0
  7 53  2  0  0  0  0
  8 54  2  0  0  0  0
  9 55  2  0  0  0  0
 10 56  2  0  0  0  0
 11 60  2  0  0  0  0
 12 71  1  0  0  0  0
 12 88  1  0  0  0  0
 13 72  1  0  0  0  0
 13 89  1  0  0  0  0
 14 75  1  0  0  0  0
 14 90  1  0  0  0  0
 15 73  1  0  0  0  0
 16 74  1  0  0  0  0
 17 76  1  0  0  0  0
 18 81  1  0  0  0  0
 18 91  1  0  0  0  0
 19 79  1  0  0  0  0
 20 80  1  0  0  0  0
 21 82  1  0  0  0  0
 22 83  1  0  0  0  0
 23 84  1  0  0  0  0
 24 85  1  0  0  0  0
 24 94  1  0  0  0  0
 25 86  1  0  0  0  0
 26 87  1  0  0  0  0
 27 88  2  0  0  0  0
 28 89  2  0  0  0  0
 29 90  2  0  0  0  0
 30 91  2  0  0  0  0
 31 94  2  0  0  0  0
 32106  1  0  0  0  0
 33107  1  0  0  0  0
 34108  1  0  0  0  0
 35109  1  0  0  0  0
 36110  1  0  0  0  0
 37111  1  0  0  0  0
 38114  1  0  0  0  0
 39115  1  0  0  0  0
 40116  1  0  0  0  0
 41117  1  0  0  0  0
 42118  1  0  0  0  0
 43119  1  0  0  0  0
 44120  1  0  0  0  0
 45121  1  0  0  0  0
 46122  1  0  0  0  0
 47 48  1  0  0  0  0
 47 49  1  0  0  0  0
 48 50  1  0  0  0  0
 49 51  1  0  0  0  0
 50 52  1  1  0  0  0
 53 57  1  0  0  0  0
 54 58  1  0  0  0  0
 55 59  1  0  0  0  0
 56 61  1  0  0  0  0
 57 63  1  0  0  0  0
 57 65  2  0  0  0  0
 58 64  1  0  0  0  0
 58 66  2  0  0  0  0
 59 67  1  0  0  0  0
 59 68  2  0  0  0  0
 60 62  1  0  0  0  0
 61 69  1  0  0  0  0
 61 70  2  0  0  0  0
 62 77  1  0  0  0  0
 62 78  2  0  0  0  0
 63 71  2  0  0  0  0
 64 72  2  0  0  0  0
 65 73  1  0  0  0  0
 66 74  1  0  0  0  0
 67 75  2  0  0  0  0
 68 76  1  0  0  0  0
 69 81  2  0  0  0  0
 70 82  1  0  0  0  0
 71 79  1  0  0  0  0
 72 80  1  0  0  0  0
 73 79  2  0  0  0  0
 74 80  2  0  0  0  0
 75 83  1  0  0  0  0
 76 83  2  0  0  0  0
 77 85  2  0  0  0  0
 78 86  1  0  0  0  0
 81 84  1  0  0  0  0
 82 84  2  0  0  0  0
 85 87  1  0  0  0  0
 86 87  2  0  0  0  0
 88 92  1  0  0  0  0
 89 93  1  0  0  0  0
 90 95  1  0  0  0  0
 91 96  1  0  0  0  0
 92 98  2  0  0  0  0
 92 99  1  0  0  0  0
 93100  2  0  0  0  0
 93101  1  0  0  0  0
 94 97  1  0  0  0  0
 95102  2  0  0  0  0
 95103  1  0  0  0  0
 96104  2  0  0  0  0
 96105  1  0  0  0  0
 97112  2  0  0  0  0
 97113  1  0  0  0  0
 98107  1  0  0  0  0
 99106  2  0  0  0  0
100109  1  0  0  0  0
101108  2  0  0  0  0
102111  1  0  0  0  0
103110  2  0  0  0  0
104117  1  0  0  0  0
105116  2  0  0  0  0
106114  1  0  0  0  0
107114  2  0  0  0  0
108115  1  0  0  0  0
109115  2  0  0  0  0
110118  1  0  0  0  0
111118  2  0  0  0  0
112121  1  0  0  0  0
113120  2  0  0  0  0
116119  1  0  0  0  0
117119  2  0  0  0  0
120122  1  0  0  0  0
121122  2  0  0  0  0
M  END
> <PUBCHEM_COMPOUND_CID>
16131300

> <PUBCHEM_COMPOUND_CANONICALIZED>
1

> <PUBCHEM_CACTVS_COMPLEXITY>
3570

> <PUBCHEM_CACTVS_HBOND_ACCEPTOR>
46

> <PUBCHEM_CACTVS_HBOND_DONOR>
25

> <PUBCHEM_CACTVS_ROTATABLE_BOND>
31

> <PUBCHEM_CACTVS_SUBSKEYS>
AAADcfB8PgAAAAAAAAAAAAAAAAAAAAAAAAA0YMGDAAAAAAABVAAAGgAACAAADBSwmAMwDoAABgCIAiDSCAACCAAkIAAAiAEGiMgdJzKGNRqieyOlwBUPuYfK7DzOIAABCAAAQABAAAIQAACAAAAAAAAAAA==

> <PUBCHEM_IUPAC_OPENEYE_NAME>
[2,3-dihydroxy-5-[[(2~{R},3~{R},4~{S},5~{R})-3,4,5,6-tetrakis[[3,4-dihydroxy-5-(3,4,5-trihydroxybenzoyl)oxy-benzoyl]oxy]tetrahydropyran-2-yl]methoxycarbonyl]phenyl] 3,4,5-trihydroxybenzoate

> <PUBCHEM_IUPAC_CAS_NAME>
3,4,5-trihydroxybenzoic acid [2,3-dihydroxy-5-[oxo-[[(2~{R},3~{R},4~{S},5~{R})-3,4,5,6-tetrakis[[3,4-dihydroxy-5-[oxo-(3,4,5-trihydroxyphenyl)methoxy]phenyl]-oxomethoxy]-2-oxanyl]methoxy]methyl]phenyl] ester

> <PUBCHEM_IUPAC_NAME>
[2,3-dihydroxy-5-[[(2~{R},3~{R},4~{S},5~{R})-3,4,5,6-tetrakis[[3,4-dihydroxy-5-(3,4,5-trihydroxybenzoyl)oxybenzoyl]oxy]oxan-2-yl]methoxycarbonyl]phenyl] 3,4,5-trihydroxybenzoate

> <PUBCHEM_IUPAC_SYSTEMATIC_NAME>
[2,3-bis(oxidanyl)-5-[[(2~{R},3~{R},4~{S},5~{R})-3,4,5,6-tetrakis[[3,4-bis(oxidanyl)-5-[3,4,5-tris(oxidanyl)phenyl]carbonyloxy-phenyl]carbonyloxy]oxan-2-yl]methoxycarbonyl]phenyl] 3,4,5-tris(oxidanyl)benzoate

> <PUBCHEM_IUPAC_TRADITIONAL_NAME>
3,4,5-trihydroxybenzoic acid [2,3-dihydroxy-5-[[(2~{R},3~{R},4~{S},5~{R})-3,4,5,6-tetrakis[(3-galloyloxy-4,5-dihydroxy-benzoyl)oxy]tetrahydropyran-2-yl]methoxycarbonyl]phenyl] ester

> <PUBCHEM_IUPAC_INCHI>
InChI=1S/C76H52O46/c77-32-1-22(2-33(78)53(32)92)67(103)113-47-16-27(11-42(87)58(47)97)66(102)112-21-52-63(119-72(108)28-12-43(88)59(98)48(17-28)114-68(104)23-3-34(79)54(93)35(80)4-23)64(120-73(109)29-13-44(89)60(99)49(18-29)115-69(105)24-5-36(81)55(94)37(82)6-24)65(121-74(110)30-14-45(90)61(100)50(19-30)116-70(106)25-7-38(83)56(95)39(84)8-25)76(118-52)122-75(111)31-15-46(91)62(101)51(20-31)117-71(107)26-9-40(85)57(96)41(86)10-26/h1-20,52,63-65,76-101H,21H2/t52-,63-,64+,65-,76?/m1/s1

> <PUBCHEM_IUPAC_INCHIKEY>
LRBQNJMCXXYXIU-YIILYMKVSA-N

> <PUBCHEM_XLOGP3_AA>
6.2

> <PUBCHEM_EXACT_MASS>
1700.173

> <PUBCHEM_MOLECULAR_FORMULA>
C76H52O46

> <PUBCHEM_MOLECULAR_WEIGHT>
1701.206

> <PUBCHEM_OPENEYE_CAN_SMILES>
C1=C(C=C(C(=C1O)O)O)C(=O)OC2=CC(=CC(=C2O)O)C(=O)OCC3C(C(C(C(O3)OC(=O)C4=CC(=C(C(=C4)OC(=O)C5=CC(=C(C(=C5)O)O)O)O)O)OC(=O)C6=CC(=C(C(=C6)OC(=O)C7=CC(=C(C(=C7)O)O)O)O)O)OC(=O)C8=CC(=C(C(=C8)OC(=O)C9=CC(=C(C(=C9)O)O)O)O)O)OC(=O)C1=CC(=C(C(=C1)OC(=O)C1=CC(=C(C(=C1)O)O)O)O)O

> <PUBCHEM_OPENEYE_ISO_SMILES>
C1=C(C=C(C(=C1O)O)O)C(=O)OC2=CC(=CC(=C2O)O)C(=O)OC[C@@H]3[C@H]([C@@H]([C@H](C(O3)OC(=O)C4=CC(=C(C(=C4)OC(=O)C5=CC(=C(C(=C5)O)O)O)O)O)OC(=O)C6=CC(=C(C(=C6)OC(=O)C7=CC(=C(C(=C7)O)O)O)O)O)OC(=O)C8=CC(=C(C(=C8)OC(=O)C9=CC(=C(C(=C9)O)O)O)O)O)OC(=O)C1=CC(=C(C(=C1)OC(=O)C1=CC(=C(C(=C1)O)O)O)O)O

> <PUBCHEM_CACTVS_TPSA>
778

> <PUBCHEM_MONOISOTOPIC_WEIGHT>
1700.173

> <PUBCHEM_TOTAL_CHARGE>
0

> <PUBCHEM_HEAVY_ATOM_COUNT>
122

> <PUBCHEM_ATOM_DEF_STEREO_COUNT>
4

> <PUBCHEM_ATOM_UDEF_STEREO_COUNT>
1

> <PUBCHEM_BOND_DEF_STEREO_COUNT>
0

> <PUBCHEM_BOND_UDEF_STEREO_COUNT>
0

> <PUBCHEM_ISOTOPIC_ATOM_COUNT>
0

> <PUBCHEM_COMPONENT_COUNT>
1

> <PUBCHEM_CACTVS_TAUTO_COUNT>
-1

> <PUBCHEM_COORDINATE_TYPE>
1
5
255

> <PUBCHEM_BONDANNOTATIONS>
100  109  8
101  108  8
102  111  8
103  110  8
104  117  8
105  116  8
106  114  8
107  114  8
108  115  8
109  115  8
110  118  8
111  118  8
112  121  8
113  120  8
116  119  8
117  119  8
120  122  8
121  122  8
47  2  5
48  3  6
49  4  6
50  52  5
51  127  3
57  63  8
57  65  8
58  64  8
58  66  8
59  67  8
59  68  8
61  69  8
61  70  8
62  77  8
62  78  8
63  71  8
64  72  8
65  73  8
66  74  8
67  75  8
68  76  8
69  81  8
70  82  8
71  79  8
72  80  8
73  79  8
74  80  8
75  83  8
76  83  8
77  85  8
78  86  8
81  84  8
82  84  8
85  87  8
86  87  8
92  98  8
92  99  8
93  100  8
93  101  8
95  102  8
95  103  8
96  104  8
96  105  8
97  112  8
97  113  8
98  107  8
99  106  8

$$$$
7044
  -OEChem-02061913072D

 10 11  0     0  0  0  0  0  0999 V2000
    3.7320   -0.5000    0.0000 C   0  0  0  0  0  0  0  0  0  0  0  0
    3.7320    0.5000    0.0000 C   0  0  0  0  0  0  0  0  0  0  0  0
    2.8660    1.0000    0.0000 C   0  0  0  0  0  0  0  0  0  0  0  0
    4.6260    1.0347    0.0000 C   0  0  0  0  0  0  0  0  0  0  0  0
    4.6260   -1.0347    0.0000 C   0  0  0  0  0  0  0  0  0  0  0  0
    2.8660   -1.0000    0.0000 C   0  0  0  0  0  0  0  0  0  0  0  0
    2.0000   -0.5000    0.0000 C   0  0  0  0  0  0  0  0  0  0  0  0
    2.0000    0.5000    0.0000 C   0  0  0  0  0  0  0  0  0  0  0  0
    5.5321    0.5208    0.0000 C   0  0  0  0  0  0  0  0  0  0  0  0
    5.5321   -0.5208    0.0000 C   0  0  0  0  0  0  0  0  0  0  0  0
  1  2  1  0  0  0  0
  1  5  1  0  0  0  0
  1  6  1  0  0  0  0
  2  3  1  0  0  0  0
  2  4  1  0  0  0  0
  3  8  1  0  0  0  0
  4  9  1  0  0  0  0
  5 10  1  0  0  0  0
  6  7  1  0  0  0  0
  7  8  1  0  0  0  0
  9 10  1  0  0  0  0
M  END
> <PUBCHEM_COMPOUND_CID>
7044

> <PUBCHEM_COMPOUND_CANONICALIZED>
1

> <PUBCHEM_CACTVS_COMPLEXITY>
80.6

> <PUBCHEM_CACTVS_HBOND_ACCEPTOR>
0

> <PUBCHEM_CACTVS_HBOND_DONOR>
0

> <PUBCHEM_CACTVS_ROTATABLE_BOND>
0

> <PUBCHEM_CACTVS_SUBSKEYS>
AAADceBwAAAAAAAAAAAAAAAAAAAAAAAAAAAwYAAAAAAAAADAAAAAGAAAAAAADQCAAAAAAAAAAAAAAAAAAAAAAAAAAAAAAAAAAAAAAAIAAAAAAAAAAAAAAAEAgIAOgAAAAAAAAAAAAAAAACAAAAAAAAAAAA==

> <PUBCHEM_IUPAC_OPENEYE_NAME>
decalin

> <PUBCHEM_IUPAC_CAS_NAME>
1,2,3,4,4~{a},5,6,7,8,8~{a}-decahydronaphthalene

> <PUBCHEM_IUPAC_NAME>
1,2,3,4,4~{a},5,6,7,8,8~{a}-decahydronaphthalene

> <PUBCHEM_IUPAC_SYSTEMATIC_NAME>
1,2,3,4,4~{a},5,6,7,8,8~{a}-decahydronaphthalene

> <PUBCHEM_IUPAC_TRADITIONAL_NAME>
decalin

> <PUBCHEM_IUPAC_INCHI>
InChI=1S/C10H18/c1-2-6-10-8-4-3-7-9(10)5-1/h9-10H,1-8H2

> <PUBCHEM_IUPAC_INCHIKEY>
NNBZCPXTIHJBJL-UHFFFAOYSA-N

> <PUBCHEM_XLOGP3_AA>
4.6

> <PUBCHEM_EXACT_MASS>
138.141

> <PUBCHEM_MOLECULAR_FORMULA>
C10H18

> <PUBCHEM_MOLECULAR_WEIGHT>
138.254

> <PUBCHEM_OPENEYE_CAN_SMILES>
C1CCC2CCCCC2C1

> <PUBCHEM_OPENEYE_ISO_SMILES>
C1CCC2CCCCC2C1

> <PUBCHEM_CACTVS_TPSA>
0

> <PUBCHEM_MONOISOTOPIC_WEIGHT>
138.141

> <PUBCHEM_TOTAL_CHARGE>
0

> <PUBCHEM_HEAVY_ATOM_COUNT>
10

> <PUBCHEM_ATOM_DEF_STEREO_COUNT>
0

> <PUBCHEM_ATOM_UDEF_STEREO_COUNT>
0

> <PUBCHEM_BOND_DEF_STEREO_COUNT>
0

> <PUBCHEM_BOND_UDEF_STEREO_COUNT>
0

> <PUBCHEM_ISOTOPIC_ATOM_COUNT>
0

> <PUBCHEM_COMPONENT_COUNT>
1

> <PUBCHEM_CACTVS_TAUTO_COUNT>
-1

> <PUBCHEM_COORDINATE_TYPE>
1
5
255

$$$$
637552
  -OEChem-02061913102D

 24 27  0     1  0  0  0  0  0999 V2000
    5.5320    0.2350    0.0000 O   0  0  0  0  0  0  0  0  0  0  0  0
    2.8680   -1.2408    0.0000 O   0  0  0  0  0  0  0  0  0  0  0  0
    7.9557    1.4507    0.0000 N   0  0  3  0  0  0  0  0  0  0  0  0
    6.3981   -3.2650    0.0000 N   0  0  0  0  0  0  0  0  0  0  0  0
    8.8217    1.9507    0.0000 C   0  0  2  0  0  0  0  0  0  0  0  0
    7.2641    0.2350    0.0000 C   0  0  2  0  0  0  0  0  0  0  0  0
    8.2300   -0.0238    0.0000 C   0  0  0  0  0  0  0  0  0  0  0  0
   10.2110    1.3986    0.0000 C   0  0  1  0  0  0  0  0  0  0  0  0
    8.1923    3.2997    0.0000 C   0  0  0  0  0  0  0  0  0  0  0  0
    9.7884    0.4923    0.0000 C   0  0  0  0  0  0  0  0  0  0  0  0
    7.3263    2.7997    0.0000 C   0  0  0  0  0  0  0  0  0  0  0  0
    6.3981   -0.2650    0.0000 C   0  0  2  0  0  0  0  0  0  0  0  0
   11.1507    1.7407    0.0000 C   0  0  0  0  0  0  0  0  0  0  0  0
    6.3981   -1.2650    0.0000 C   0  0  0  0  0  0  0  0  0  0  0  0
   11.9167    1.0979    0.0000 C   0  0  0  0  0  0  0  0  0  0  0  0
    5.5320   -1.7650    0.0000 C   0  0  0  0  0  0  0  0  0  0  0  0
    7.2641   -1.7650    0.0000 C   0  0  0  0  0  0  0  0  0  0  0  0
    5.5320   -2.7650    0.0000 C   0  0  0  0  0  0  0  0  0  0  0  0
    4.6381   -1.2303    0.0000 C   0  0  0  0  0  0  0  0  0  0  0  0
    7.2641   -2.7650    0.0000 C   0  0  0  0  0  0  0  0  0  0  0  0
    4.6381   -3.2997    0.0000 C   0  0  0  0  0  0  0  0  0  0  0  0
    3.7320   -1.7442    0.0000 C   0  0  0  0  0  0  0  0  0  0  0  0
    3.7320   -2.7858    0.0000 C   0  0  0  0  0  0  0  0  0  0  0  0
    2.0000   -1.7375    0.0000 C   0  0  0  0  0  0  0  0  0  0  0  0
 12  1  1  6  0  0  0
  2 22  1  0  0  0  0
  2 24  1  0  0  0  0
  3  6  1  0  0  0  0
  3 10  1  0  0  0  0
  3 11  1  0  0  0  0
  4 18  2  0  0  0  0
  4 20  1  0  0  0  0
  5  7  1  0  0  0  0
  5  8  1  0  0  0  0
  5  9  1  0  0  0  0
  6  7  1  0  0  0  0
  6 12  1  0  0  0  0
  8 10  1  0  0  0  0
  8 13  1  6  0  0  0
  9 11  1  0  0  0  0
 12 14  1  0  0  0  0
 13 15  2  0  0  0  0
 14 16  2  0  0  0  0
 14 17  1  0  0  0  0
 16 18  1  0  0  0  0
 16 19  1  0  0  0  0
 17 20  2  0  0  0  0
 18 21  1  0  0  0  0
 19 22  2  0  0  0  0
 21 23  2  0  0  0  0
 22 23  1  0  0  0  0
M  END
> <PUBCHEM_COMPOUND_CID>
637552

> <PUBCHEM_COMPOUND_CANONICALIZED>
1

> <PUBCHEM_CACTVS_COMPLEXITY>
457

> <PUBCHEM_CACTVS_HBOND_ACCEPTOR>
4

> <PUBCHEM_CACTVS_HBOND_DONOR>
1

> <PUBCHEM_CACTVS_ROTATABLE_BOND>
4

> <PUBCHEM_CACTVS_SUBSKEYS>
AAADceB7MAAAAAAAAAAAAAAAAAAAAAAAAAA8WLFiAAAAAACx8AAAHgAACAAADTzhngY+xvMIFgCgAzRnRACCiCAxIiAI2CA+bJgONuLEsZuEcChkwBHY+Aew4PwOgEABAAACAAAAgAIAAAQAAAAAAAAAAA==

> <PUBCHEM_IUPAC_OPENEYE_NAME>
(~{S})-(6-methoxy-4-quinolyl)-[(2~{R},4~{R},5~{S})-5-vinylquinuclidin-2-yl]methanol

> <PUBCHEM_IUPAC_CAS_NAME>
(~{S})-[(2~{R},4~{R},5~{S})-5-ethenyl-1-azabicyclo[2.2.2]octan-2-yl]-(6-methoxy-4-quinolinyl)methanol

> <PUBCHEM_IUPAC_NAME>
(~{S})-[(2~{R},4~{R},5~{S})-5-ethenyl-1-azabicyclo[2.2.2]octan-2-yl]-(6-methoxyquinolin-4-yl)methanol

> <PUBCHEM_IUPAC_SYSTEMATIC_NAME>
(~{S})-[(2~{R},4~{R},5~{S})-5-ethenyl-1-azabicyclo[2.2.2]octan-2-yl]-(6-methoxyquinolin-4-yl)methanol

> <PUBCHEM_IUPAC_TRADITIONAL_NAME>
(~{S})-(6-methoxy-4-quinolyl)-[(2~{R},4~{R},5~{S})-5-vinylquinuclidin-2-yl]methanol

> <PUBCHEM_IUPAC_INCHI>
InChI=1S/C20H24N2O2/c1-3-13-12-22-9-7-14(13)10-19(22)20(23)16-6-8-21-18-5-4-15(24-2)11-17(16)18/h3-6,8,11,13-14,19-20,23H,1,7,9-10,12H2,2H3/t13-,14-,19-,20+/m1/s1

> <PUBCHEM_IUPAC_INCHIKEY>
LOUPRKONTZGTKE-FQZPYLGXSA-N

> <PUBCHEM_XLOGP3>
2.9

> <PUBCHEM_EXACT_MASS>
324.184

> <PUBCHEM_MOLECULAR_FORMULA>
C20H24N2O2

> <PUBCHEM_MOLECULAR_WEIGHT>
324.424

> <PUBCHEM_OPENEYE_CAN_SMILES>
COC1=CC2=C(C=CN=C2C=C1)C(C3CC4CCN3CC4C=C)O

> <PUBCHEM_OPENEYE_ISO_SMILES>
COC1=CC2=C(C=CN=C2C=C1)[C@@H]([C@H]3C[C@H]4CCN3C[C@H]4C=C)O

> <PUBCHEM_CACTVS_TPSA>
45.6

> <PUBCHEM_MONOISOTOPIC_WEIGHT>
324.184

> <PUBCHEM_TOTAL_CHARGE>
0

> <PUBCHEM_HEAVY_ATOM_COUNT>
24

> <PUBCHEM_ATOM_DEF_STEREO_COUNT>
4

> <PUBCHEM_ATOM_UDEF_STEREO_COUNT>
0

> <PUBCHEM_BOND_DEF_STEREO_COUNT>
0

> <PUBCHEM_BOND_UDEF_STEREO_COUNT>
0

> <PUBCHEM_ISOTOPIC_ATOM_COUNT>
0

> <PUBCHEM_COMPONENT_COUNT>
1

> <PUBCHEM_CACTVS_TAUTO_COUNT>
-1

> <PUBCHEM_COORDINATE_TYPE>
1
5
255

> <PUBCHEM_BONDANNOTATIONS>
12  1  6
14  16  8
14  17  8
16  18  8
16  19  8
17  20  8
18  21  8
19  22  8
21  23  8
22  23  8
4  18  8
4  20  8
5  25  6
6  26  5
8  13  6

$$$$
24867865
  -OEChem-02061914082D

 24 27  0     1  0  0  0  0  0999 V2000
    5.5320    0.3376    0.0000 O   0  0  0  0  0  0  0  0  0  0  0  0
    2.8680   -1.1382    0.0000 O   0  0  0  0  0  0  0  0  0  0  0  0
    7.7389    2.3435    0.0000 N   0  0  3  0  0  0  0  0  0  0  0  0
    6.3981   -3.1624    0.0000 N   0  0  0  0  0  0  0  0  0  0  0  0
    8.2389    1.4774    0.0000 C   0  0  3  0  0  0  0  0  0  0  0  0
    7.2641    0.3376    0.0000 C   0  0  2  0  0  0  0  0  0  0  0  0
    8.2300    0.0788    0.0000 C   0  0  0  0  0  0  0  0  0  0  0  0
    6.1726    1.5638    0.0000 C   0  0  2  0  0  0  0  0  0  0  0  0
    9.4585    2.3310    0.0000 C   0  0  0  0  0  0  0  0  0  0  0  0
    6.2598    2.5600    0.0000 C   0  0  0  0  0  0  0  0  0  0  0  0
    8.9585    3.1970    0.0000 C   0  0  0  0  0  0  0  0  0  0  0  0
    6.3981   -0.1624    0.0000 C   0  0  3  0  0  0  0  0  0  0  0  0
    5.1878    1.3902    0.0000 C   0  0  0  0  0  0  0  0  0  0  0  0
    6.3981   -1.1624    0.0000 C   0  0  0  0  0  0  0  0  0  0  0  0
    4.5450    2.1563    0.0000 C   0  0  0  0  0  0  0  0  0  0  0  0
    5.5320   -1.6624    0.0000 C   0  0  0  0  0  0  0  0  0  0  0  0
    7.2641   -1.6624    0.0000 C   0  0  0  0  0  0  0  0  0  0  0  0
    5.5320   -2.6624    0.0000 C   0  0  0  0  0  0  0  0  0  0  0  0
    4.6381   -1.1277    0.0000 C   0  0  0  0  0  0  0  0  0  0  0  0
    7.2641   -2.6624    0.0000 C   0  0  0  0  0  0  0  0  0  0  0  0
    4.6381   -3.1970    0.0000 C   0  0  0  0  0  0  0  0  0  0  0  0
    3.7320   -1.6415    0.0000 C   0  0  0  0  0  0  0  0  0  0  0  0
    3.7320   -2.6832    0.0000 C   0  0  0  0  0  0  0  0  0  0  0  0
    2.0000   -1.6349    0.0000 C   0  0  0  0  0  0  0  0  0  0  0  0
  1 12  1  0  0  0  0
  2 22  1  0  0  0  0
  2 24  1  0  0  0  0
  3  6  1  0  0  0  0
  3 10  1  0  0  0  0
  3 11  1  0  0  0  0
  4 18  2  0  0  0  0
  4 20  1  0  0  0  0
  5  7  1  0  0  0  0
  5  8  1  0  0  0  0
  5  9  1  0  0  0  0
  6  7  1  0  0  0  0
  6 12  1  6  0  0  0
  8 10  1  0  0  0  0
  8 13  1  1  0  0  0
  9 11  1  0  0  0  0
 12 14  1  0  0  0  0
 13 15  2  0  0  0  0
 14 16  2  0  0  0  0
 14 17  1  0  0  0  0
 16 18  1  0  0  0  0
 16 19  1  0  0  0  0
 17 20  2  0  0  0  0
 18 21  1  0  0  0  0
 19 22  2  0  0  0  0
 21 23  2  0  0  0  0
 22 23  1  0  0  0  0
M  END
> <PUBCHEM_COMPOUND_CID>
24867865

> <PUBCHEM_COMPOUND_CANONICALIZED>
1

> <PUBCHEM_CACTVS_COMPLEXITY>
457

> <PUBCHEM_CACTVS_HBOND_ACCEPTOR>
4

> <PUBCHEM_CACTVS_HBOND_DONOR>
1

> <PUBCHEM_CACTVS_ROTATABLE_BOND>
4

> <PUBCHEM_CACTVS_SUBSKEYS>
AAADceB7MAAAAAAAAAAAAAAAAAAAAAAAAAA8WLFiAAAAAACx8AAAHgAACAAADTzhngY+xvMIFgCgAzRnRACCiCAxIiAI2CA+bJgONuLEsZuEcChkwBHY+Aew4PwOgEABAAACAAAAgAIAAAQAAAAAAAAAAA==

> <PUBCHEM_IUPAC_OPENEYE_NAME>
(6-methoxy-4-quinolyl)-[(2~{R},5~{R})-5-vinylquinuclidin-2-yl]methanol

> <PUBCHEM_IUPAC_CAS_NAME>
[(2~{R},5~{R})-5-ethenyl-1-azabicyclo[2.2.2]octan-2-yl]-(6-methoxy-4-quinolinyl)methanol

> <PUBCHEM_IUPAC_NAME>
[(2~{R},5~{R})-5-ethenyl-1-azabicyclo[2.2.2]octan-2-yl]-(6-methoxyquinolin-4-yl)methanol

> <PUBCHEM_IUPAC_SYSTEMATIC_NAME>
[(2~{R},5~{R})-5-ethenyl-1-azabicyclo[2.2.2]octan-2-yl]-(6-methoxyquinolin-4-yl)methanol

> <PUBCHEM_IUPAC_TRADITIONAL_NAME>
(6-methoxy-4-quinolyl)-[(2~{R},5~{R})-5-vinylquinuclidin-2-yl]methanol

> <PUBCHEM_IUPAC_INCHI>
InChI=1S/C20H24N2O2/c1-3-13-12-22-9-7-14(13)10-19(22)20(23)16-6-8-21-18-5-4-15(24-2)11-17(16)18/h3-6,8,11,13-14,19-20,23H,1,7,9-10,12H2,2H3/t13-,14?,19+,20?/m0/s1

> <PUBCHEM_IUPAC_INCHIKEY>
LOUPRKONTZGTKE-BEFZOFJQSA-N

> <PUBCHEM_XLOGP3>
2.9

> <PUBCHEM_EXACT_MASS>
324.184

> <PUBCHEM_MOLECULAR_FORMULA>
C20H24N2O2

> <PUBCHEM_MOLECULAR_WEIGHT>
324.424

> <PUBCHEM_OPENEYE_CAN_SMILES>
COC1=CC2=C(C=CN=C2C=C1)C(C3CC4CCN3CC4C=C)O

> <PUBCHEM_OPENEYE_ISO_SMILES>
COC1=CC2=C(C=CN=C2C=C1)C([C@H]3CC4CCN3C[C@@H]4C=C)O

> <PUBCHEM_CACTVS_TPSA>
45.6

> <PUBCHEM_MONOISOTOPIC_WEIGHT>
324.184

> <PUBCHEM_TOTAL_CHARGE>
0

> <PUBCHEM_HEAVY_ATOM_COUNT>
24

> <PUBCHEM_ATOM_DEF_STEREO_COUNT>
2

> <PUBCHEM_ATOM_UDEF_STEREO_COUNT>
2

> <PUBCHEM_BOND_DEF_STEREO_COUNT>
0

> <PUBCHEM_BOND_UDEF_STEREO_COUNT>
0

> <PUBCHEM_ISOTOPIC_ATOM_COUNT>
0

> <PUBCHEM_COMPONENT_COUNT>
1

> <PUBCHEM_CACTVS_TAUTO_COUNT>
-1

> <PUBCHEM_COORDINATE_TYPE>
1
5
255

> <PUBCHEM_BONDANNOTATIONS>
12  36  3
14  16  8
14  17  8
16  18  8
16  19  8
17  20  8
18  21  8
19  22  8
21  23  8
22  23  8
4  18  8
4  20  8
5  9  3
6  12  6
8  13  5

$$$$
942
  -OEChem-02061913062D

 12 13  0     1  0  0  0  0  0999 V2000
    2.9511    1.3184    0.0000 N   0  0  3  0  0  0  0  0  0  0  0  0
    4.6261   -1.7694    0.0000 N   0  0  0  0  0  0  0  0  0  0  0  0
    3.7601    0.7306    0.0000 C   0  0  3  0  0  0  0  0  0  0  0  0
    4.5691    1.3184    0.0000 C   0  0  0  0  0  0  0  0  0  0  0  0
    4.2601    2.2694    0.0000 C   0  0  0  0  0  0  0  0  0  0  0  0
    3.2601    2.2694    0.0000 C   0  0  0  0  0  0  0  0  0  0  0  0
    3.7601   -0.2694    0.0000 C   0  0  0  0  0  0  0  0  0  0  0  0
    2.0000    1.0094    0.0000 C   0  0  0  0  0  0  0  0  0  0  0  0
    2.8940   -0.7694    0.0000 C   0  0  0  0  0  0  0  0  0  0  0  0
    4.6261   -0.7694    0.0000 C   0  0  0  0  0  0  0  0  0  0  0  0
    2.8940   -1.7694    0.0000 C   0  0  0  0  0  0  0  0  0  0  0  0
    3.7601   -2.2694    0.0000 C   0  0  0  0  0  0  0  0  0  0  0  0
  1  3  1  0  0  0  0
  1  6  1  0  0  0  0
  1  8  1  0  0  0  0
  2 10  1  0  0  0  0
  2 12  2  0  0  0  0
  3  4  1  0  0  0  0
  3  7  1  0  0  0  0
  4  5  1  0  0  0  0
  5  6  1  0  0  0  0
  7  9  1  0  0  0  0
  7 10  2  0  0  0  0
  9 11  2  0  0  0  0
 11 12  1  0  0  0  0
M  END
> <PUBCHEM_COMPOUND_CID>
942

> <PUBCHEM_COMPOUND_CANONICALIZED>
1

> <PUBCHEM_CACTVS_COMPLEXITY>
147

> <PUBCHEM_CACTVS_HBOND_ACCEPTOR>
2

> <PUBCHEM_CACTVS_HBOND_DONOR>
0

> <PUBCHEM_CACTVS_ROTATABLE_BOND>
1

> <PUBCHEM_CACTVS_SUBSKEYS>
AAADccBzAAAAAAAAAAAAAAAAAAAAAWAAAAAsAAAAAAAAAAABgAAAHAAAAAAADCjBGgQ+gJMIEACgAjBnRACCgCAxAiAI2CA4ZJgIIOLA0ZGEIAhggADIyAcQgIAOAAAAAAAAAAAAAAAAAAAAAAAAAAAAAA==

> <PUBCHEM_IUPAC_OPENEYE_NAME>
3-(1-methylpyrrolidin-2-yl)pyridine

> <PUBCHEM_IUPAC_CAS_NAME>
3-(1-methyl-2-pyrrolidinyl)pyridine

> <PUBCHEM_IUPAC_NAME>
3-(1-methylpyrrolidin-2-yl)pyridine

> <PUBCHEM_IUPAC_SYSTEMATIC_NAME>
3-(1-methylpyrrolidin-2-yl)pyridine

> <PUBCHEM_IUPAC_TRADITIONAL_NAME>
nicotine

> <PUBCHEM_IUPAC_INCHI>
InChI=1S/C10H14N2/c1-12-7-3-5-10(12)9-4-2-6-11-8-9/h2,4,6,8,10H,3,5,7H2,1H3

> <PUBCHEM_IUPAC_INCHIKEY>
SNICXCGAKADSCV-UHFFFAOYSA-N

> <PUBCHEM_XLOGP3>
1.2

> <PUBCHEM_EXACT_MASS>
162.116

> <PUBCHEM_MOLECULAR_FORMULA>
C10H14N2

> <PUBCHEM_MOLECULAR_WEIGHT>
162.236

> <PUBCHEM_OPENEYE_CAN_SMILES>
CN1CCCC1C2=CN=CC=C2

> <PUBCHEM_OPENEYE_ISO_SMILES>
CN1CCCC1C2=CN=CC=C2

> <PUBCHEM_CACTVS_TPSA>
16.1

> <PUBCHEM_MONOISOTOPIC_WEIGHT>
162.116

> <PUBCHEM_TOTAL_CHARGE>
0

> <PUBCHEM_HEAVY_ATOM_COUNT>
12

> <PUBCHEM_ATOM_DEF_STEREO_COUNT>
0

> <PUBCHEM_ATOM_UDEF_STEREO_COUNT>
1

> <PUBCHEM_BOND_DEF_STEREO_COUNT>
0

> <PUBCHEM_BOND_UDEF_STEREO_COUNT>
0

> <PUBCHEM_ISOTOPIC_ATOM_COUNT>
0

> <PUBCHEM_COMPONENT_COUNT>
1

> <PUBCHEM_CACTVS_TAUTO_COUNT>
-1

> <PUBCHEM_COORDINATE_TYPE>
1
5
255

> <PUBCHEM_BONDANNOTATIONS>
11  12  8
2  10  8
2  12  8
3  7  3
7  10  8
7  9  8
9  11  8

$$$$
12358706
  -OEChem-02061913512D

 29 31  0     1  0  0  0  0  0999 V2000
    2.0000   -4.8465    0.0000 O   0  0  0  0  0  0  0  0  0  0  0  0
    5.4641    1.1535    0.0000 C   0  0  2  0  0  0  0  0  0  0  0  0
    6.4103    1.4582    0.0000 C   0  0  2  0  0  0  0  0  0  0  0  0
    5.4641    0.1535    0.0000 C   0  0  1  0  0  0  0  0  0  0  0  0
    6.9939    0.6535    0.0000 C   0  0  0  0  0  0  0  0  0  0  0  0
    6.4103   -0.1512    0.0000 C   0  0  0  0  0  0  0  0  0  0  0  0
    4.5981    1.6535    0.0000 C   0  0  0  0  0  0  0  0  0  0  0  0
    6.7210    2.4087    0.0000 C   0  0  2  0  0  0  0  0  0  0  0  0
    4.5981   -0.3465    0.0000 C   0  0  0  0  0  0  0  0  0  0  0  0
    5.4641    2.1535    0.0000 C   0  0  0  0  0  0  0  0  0  0  0  0
    3.7320    1.1535    0.0000 C   0  0  0  0  0  0  0  0  0  0  0  0
    3.7320    0.1535    0.0000 C   0  0  0  0  0  0  0  0  0  0  0  0
    6.0531    3.1530    0.0000 C   0  0  0  0  0  0  0  0  0  0  0  0
    7.6995    2.6150    0.0000 C   0  0  0  0  0  0  0  0  0  0  0  0
    4.5981   -1.3465    0.0000 C   0  0  0  0  0  0  0  0  0  0  0  0
    8.0102    3.5655    0.0000 C   0  0  0  0  0  0  0  0  0  0  0  0
    3.7320   -1.8465    0.0000 C   0  0  0  0  0  0  0  0  0  0  0  0
    8.9887    3.7717    0.0000 C   0  0  2  0  0  0  0  0  0  0  0  0
    3.7320   -2.8465    0.0000 C   0  0  0  0  0  0  0  0  0  0  0  0
    9.2993    4.7222    0.0000 C   0  0  0  0  0  0  0  0  0  0  0  0
    2.8660   -3.3465    0.0000 C   0  0  0  0  0  0  0  0  0  0  0  0
    9.6565    3.0274    0.0000 C   0  0  0  0  0  0  0  0  0  0  0  0
    4.5981   -3.3465    0.0000 C   0  0  0  0  0  0  0  0  0  0  0  0
    2.8660   -4.3465    0.0000 C   0  0  2  0  0  0  0  0  0  0  0  0
    4.5981   -4.3465    0.0000 C   0  0  0  0  0  0  0  0  0  0  0  0
    3.7320   -4.8465    0.0000 C   0  0  0  0  0  0  0  0  0  0  0  0
   10.2778    4.9284    0.0000 C   0  0  0  0  0  0  0  0  0  0  0  0
    8.6315    5.4665    0.0000 C   0  0  0  0  0  0  0  0  0  0  0  0
    5.4641   -2.8465    0.0000 C   0  0  0  0  0  0  0  0  0  0  0  0
 24  1  1  6  0  0  0
  2  3  1  0  0  0  0
  2  4  1  0  0  0  0
  2  7  1  0  0  0  0
  2 10  1  1  0  0  0
  3  5  1  0  0  0  0
  3  8  1  0  0  0  0
  4  6  1  0  0  0  0
  4  9  1  0  0  0  0
  5  6  1  0  0  0  0
  7 11  1  0  0  0  0
  8 13  1  6  0  0  0
  8 14  1  0  0  0  0
  9 12  1  0  0  0  0
  9 15  2  0  0  0  0
 11 12  1  0  0  0  0
 14 16  2  0  0  0  0
 15 17  1  0  0  0  0
 16 18  1  0  0  0  0
 17 19  2  0  0  0  0
 18 20  1  0  0  0  0
 18 22  1  6  0  0  0
 19 21  1  0  0  0  0
 19 23  1  0  0  0  0
 20 27  1  0  0  0  0
 20 28  1  0  0  0  0
 21 24  1  0  0  0  0
 23 25  1  0  0  0  0
 23 29  2  0  0  0  0
 24 26  1  0  0  0  0
 25 26  1  0  0  0  0
M  END
> <PUBCHEM_COMPOUND_CID>
12358706

> <PUBCHEM_COMPOUND_CANONICALIZED>
1

> <PUBCHEM_CACTVS_COMPLEXITY>
678

> <PUBCHEM_CACTVS_HBOND_ACCEPTOR>
1

> <PUBCHEM_CACTVS_HBOND_DONOR>
1

> <PUBCHEM_CACTVS_ROTATABLE_BOND>
5

> <PUBCHEM_CACTVS_SUBSKEYS>
AAADcfB4IAAAAAAAAAAAAAAAAAAAAYAAAAAwYAAAAAAAAGAAAAAAGgAACAAADxSggAICAAAAAgCAAiBCAAAAAAAgAAAICAAAAAgIEAIAAQAAQAAEwAAIgAOAwMAPgAAAAAAAAAAAAAAAACAAAQAACAAAAA==

> <PUBCHEM_IUPAC_OPENEYE_NAME>
(1~{S},3~{Z})-3-[(2~{E})-2-[(1~{R},3~{a}~{S},7~{a}~{R})-7~{a}-methyl-1-[(~{E},1~{R},4~{S})-1,4,5-trimethylhex-2-enyl]-2,3,3~{a},5,6,7-hexahydro-1~{H}-inden-4-ylidene]ethylidene]-4-methylene-cyclohexanol

> <PUBCHEM_IUPAC_CAS_NAME>
(1~{S},3~{Z})-3-[(2~{E})-2-[(1~{R},3~{a}~{S},7~{a}~{R})-1-[(~{E},2~{R},5~{S})-5,6-dimethylhept-3-en-2-yl]-7~{a}-methyl-2,3,3~{a},5,6,7-hexahydro-1~{H}-inden-4-ylidene]ethylidene]-4-methylene-1-cyclohexanol

> <PUBCHEM_IUPAC_NAME>
(1~{S},3~{Z})-3-[(2~{E})-2-[(1~{R},3~{a}~{S},7~{a}~{R})-1-[(~{E},2~{R},5~{S})-5,6-dimethylhept-3-en-2-yl]-7~{a}-methyl-2,3,3~{a},5,6,7-hexahydro-1~{H}-inden-4-ylidene]ethylidene]-4-methylidenecyclohexan-1-ol

> <PUBCHEM_IUPAC_SYSTEMATIC_NAME>
(1~{S},3~{Z})-3-[(2~{E})-2-[(1~{R},3~{a}~{S},7~{a}~{R})-1-[(~{E},2~{R},5~{S})-5,6-dimethylhept-3-en-2-yl]-7~{a}-methyl-2,3,3~{a},5,6,7-hexahydro-1~{H}-inden-4-ylidene]ethylidene]-4-methylidene-cyclohexan-1-ol

> <PUBCHEM_IUPAC_TRADITIONAL_NAME>
(1~{S},3~{Z})-3-[(2~{E})-2-[(1~{R},3~{a}~{S},7~{a}~{R})-7~{a}-methyl-1-[(~{E},1~{R},4~{S})-1,4,5-trimethylhex-2-enyl]-2,3,3~{a},5,6,7-hexahydro-1~{H}-inden-4-ylidene]ethylidene]-4-methylene-cyclohexanol

> <PUBCHEM_IUPAC_INCHI>
InChI=1S/C28H44O/c1-19(2)20(3)9-10-22(5)26-15-16-27-23(8-7-17-28(26,27)6)12-13-24-18-25(29)14-11-21(24)4/h9-10,12-13,19-20,22,25-27,29H,4,7-8,11,14-18H2,1-3,5-6H3/b10-9+,23-12+,24-13-/t20-,22-,25+,26-,27+,28-/m1/s1

> <PUBCHEM_IUPAC_INCHIKEY>
MECHNRXZTMCUDQ-VWMDTXJCSA-N

> <PUBCHEM_XLOGP3_AA>
7.4

> <PUBCHEM_EXACT_MASS>
396.339

> <PUBCHEM_MOLECULAR_FORMULA>
C28H44O

> <PUBCHEM_MOLECULAR_WEIGHT>
396.659

> <PUBCHEM_OPENEYE_CAN_SMILES>
CC(C)C(C)C=CC(C)C1CCC2C1(CCCC2=CC=C3CC(CCC3=C)O)C

> <PUBCHEM_OPENEYE_ISO_SMILES>
C[C@H](/C=C/[C@@H](C)C(C)C)[C@H]1CC[C@@H]\2[C@@]1(CCC/C2=C\C=C/3\C[C@H](CCC3=C)O)C

> <PUBCHEM_CACTVS_TPSA>
20.2

> <PUBCHEM_MONOISOTOPIC_WEIGHT>
396.339

> <PUBCHEM_TOTAL_CHARGE>
0

> <PUBCHEM_HEAVY_ATOM_COUNT>
29

> <PUBCHEM_ATOM_DEF_STEREO_COUNT>
6

> <PUBCHEM_ATOM_UDEF_STEREO_COUNT>
0

> <PUBCHEM_BOND_DEF_STEREO_COUNT>
3

> <PUBCHEM_BOND_UDEF_STEREO_COUNT>
0

> <PUBCHEM_ISOTOPIC_ATOM_COUNT>
0

> <PUBCHEM_COMPONENT_COUNT>
1

> <PUBCHEM_CACTVS_TAUTO_COUNT>
-1

> <PUBCHEM_COORDINATE_TYPE>
1
5
255

> <PUBCHEM_BONDANNOTATIONS>
24  1  6
18  22  6
2  10  5
3  30  6
4  31  6
8  13  6

$$$$
6466
  -OEChem-02061913062D

 25 29  0     1  0  0  0  0  0999 V2000
    5.3027    0.5374    0.0000 O   0  0  0  0  0  0  0  0  0  0  0  0
    9.0640   -1.7746    0.0000 O   0  0  0  0  0  0  0  0  0  0  0  0
    2.3580   -0.5632    0.0000 O   0  0  0  0  0  0  0  0  0  0  0  0
    2.8808    1.0940    0.0000 O   0  0  0  0  0  0  0  0  0  0  0  0
    6.3795    1.7658    0.0000 O   0  0  0  0  0  0  0  0  0  0  0  0
    4.6536    1.6203    0.0000 O   0  0  0  0  0  0  0  0  0  0  0  0
    6.3708   -0.3508    0.0000 C   0  0  1  0  0  0  0  0  0  0  0  0
    6.0688   -1.2180    0.0000 C   0  0  2  0  0  0  0  0  0  0  0  0
    4.8938   -0.3224    0.0000 C   0  0  2  0  0  0  0  0  0  0  0  0
    5.1568   -1.1965    0.0000 C   0  0  2  0  0  0  0  0  0  0  0  0
    5.6426    0.1984    0.0000 C   0  0  2  0  0  0  0  0  0  0  0  0
    7.0668   -1.1832    0.0000 C   0  0  0  0  0  0  0  0  0  0  0  0
    3.9765   -0.1064    0.0000 C   0  0  1  0  0  0  0  0  0  0  0  0
    8.1197   -1.4458    0.0000 C   0  0  2  0  0  0  0  0  0  0  0  0
    7.2376   -0.0462    0.0000 C   0  0  0  0  0  0  0  0  0  0  0  0
    6.5591   -1.9946    0.0000 C   0  0  0  0  0  0  0  0  0  0  0  0
    7.4714   -2.0958    0.0000 C   0  0  0  0  0  0  0  0  0  0  0  0
    8.0153   -0.5332    0.0000 C   0  0  0  0  0  0  0  0  0  0  0  0
    4.5190   -1.9110    0.0000 C   0  0  0  0  0  0  0  0  0  0  0  0
    3.3314   -0.7926    0.0000 C   0  0  2  0  0  0  0  0  0  0  0  0
    3.7116    0.5374    0.0000 C   0  0  0  0  0  0  0  0  0  0  0  0
    5.5586    1.1949    0.0000 C   0  0  0  0  0  0  0  0  0  0  0  0
    2.9930    0.0748    0.0000 C   0  0  0  0  0  0  0  0  0  0  0  0
    3.6028   -1.6953    0.0000 C   0  0  0  0  0  0  0  0  0  0  0  0
    8.8189    0.0619    0.0000 C   0  0  0  0  0  0  0  0  0  0  0  0
 10  1  1  1  0  0  0
  1 21  1  0  0  0  0
 14  2  1  1  0  0  0
 20  3  1  6  0  0  0
  4 21  2  0  0  0  0
  5 22  1  0  0  0  0
  6 22  2  0  0  0  0
  7  8  1  0  0  0  0
  7 11  1  0  0  0  0
  7 12  1  1  0  0  0
  7 15  1  0  0  0  0
  8 10  1  0  0  0  0
  8 16  1  0  0  0  0
  9 10  1  0  0  0  0
  9 11  1  0  0  0  0
  9 13  1  0  0  0  0
 10 19  1  0  0  0  0
 11 22  1  6  0  0  0
 12 14  1  0  0  0  0
 13 20  1  0  0  0  0
 13 21  1  0  0  0  0
 13 23  1  6  0  0  0
 14 17  1  0  0  0  0
 14 18  1  0  0  0  0
 15 18  1  0  0  0  0
 16 17  1  0  0  0  0
 18 25  2  0  0  0  0
 19 24  2  0  0  0  0
 20 24  1  0  0  0  0
M  END
> <PUBCHEM_COMPOUND_CID>
6466

> <PUBCHEM_COMPOUND_CANONICALIZED>
1

> <PUBCHEM_CACTVS_COMPLEXITY>
772

> <PUBCHEM_CACTVS_HBOND_ACCEPTOR>
6

> <PUBCHEM_CACTVS_HBOND_DONOR>
3

> <PUBCHEM_CACTVS_ROTATABLE_BOND>
1

> <PUBCHEM_CACTVS_SUBSKEYS>
AAADceB4OAAAAAAAAAAAAAAAAAAAAaMEAAAwQAAABggSAGDAAAAAGgAACAAAD1SggAICCAAABgCIAiDSCAAAAAAgAAAICAEAAAgAFBYAIQACUAAFoAAIMAPK7vzPgAAAAAAAAADAAAYAACAAAYAADAAAAA==

> <PUBCHEM_IUPAC_OPENEYE_NAME>
(1~{R},2~{R},5~{S},8~{S},9~{S},10~{R},11~{S},12~{S})-5,12-dihydroxy-11-methyl-6-methylene-16-oxo-15-oxapentacyclo[9.3.2.1^{5,8}.0^{1,10}.0^{2,8}]heptadec-13-ene-9-carboxylic acid

> <PUBCHEM_IUPAC_CAS_NAME>
(1~{R},2~{R},5~{S},8~{S},9~{S},10~{R},11~{S},12~{S})-5,12-dihydroxy-11-methyl-6-methylene-16-oxo-15-oxapentacyclo[9.3.2.1^{5,8}.0^{1,10}.0^{2,8}]heptadec-13-ene-9-carboxylic acid

> <PUBCHEM_IUPAC_NAME>
(1~{R},2~{R},5~{S},8~{S},9~{S},10~{R},11~{S},12~{S})-5,12-dihydroxy-11-methyl-6-methylidene-16-oxo-15-oxapentacyclo[9.3.2.1^{5,8}.0^{1,10}.0^{2,8}]heptadec-13-ene-9-carboxylic acid

> <PUBCHEM_IUPAC_SYSTEMATIC_NAME>
(1~{R},2~{R},5~{S},8~{S},9~{S},10~{R},11~{S},12~{S})-11-methyl-6-methylidene-5,12-bis(oxidanyl)-16-oxidanylidene-15-oxapentacyclo[9.3.2.1^{5,8}.0^{1,10}.0^{2,8}]heptadec-13-ene-9-carboxylic acid

> <PUBCHEM_IUPAC_TRADITIONAL_NAME>
(1~{R},2~{R},5~{S},8~{S},9~{S},10~{R},11~{S},12~{S})-5,12-dihydroxy-16-keto-11-methyl-6-methylene-15-oxapentacyclo[9.3.2.1^{5,8}.0^{1,10}.0^{2,8}]heptadec-13-ene-9-carboxylic acid

> <PUBCHEM_IUPAC_INCHI>
InChI=1S/C19H22O6/c1-9-7-17-8-18(9,24)5-3-10(17)19-6-4-11(20)16(2,15(23)25-19)13(19)12(17)14(21)22/h4,6,10-13,20,24H,1,3,5,7-8H2,2H3,(H,21,22)/t10-,11+,12-,13-,16-,17+,18+,19-/m1/s1

> <PUBCHEM_IUPAC_INCHIKEY>
IXORZMNAPKEEDV-OBDJNFEBSA-N

> <PUBCHEM_XLOGP3>
0.2

> <PUBCHEM_EXACT_MASS>
346.142

> <PUBCHEM_MOLECULAR_FORMULA>
C19H22O6

> <PUBCHEM_MOLECULAR_WEIGHT>
346.379

> <PUBCHEM_OPENEYE_CAN_SMILES>
CC12C(C=CC3(C1C(C45C3CCC(C4)(C(=C)C5)O)C(=O)O)OC2=O)O

> <PUBCHEM_OPENEYE_ISO_SMILES>
C[C@@]12[C@H](C=C[C@@]3([C@@H]1[C@@H]([C@]45[C@H]3CC[C@](C4)(C(=C)C5)O)C(=O)O)OC2=O)O

> <PUBCHEM_CACTVS_TPSA>
104

> <PUBCHEM_MONOISOTOPIC_WEIGHT>
346.142

> <PUBCHEM_TOTAL_CHARGE>
0

> <PUBCHEM_HEAVY_ATOM_COUNT>
25

> <PUBCHEM_ATOM_DEF_STEREO_COUNT>
8

> <PUBCHEM_ATOM_UDEF_STEREO_COUNT>
0

> <PUBCHEM_BOND_DEF_STEREO_COUNT>
0

> <PUBCHEM_BOND_UDEF_STEREO_COUNT>
0

> <PUBCHEM_ISOTOPIC_ATOM_COUNT>
0

> <PUBCHEM_COMPONENT_COUNT>
1

> <PUBCHEM_CACTVS_TAUTO_COUNT>
-1

> <PUBCHEM_COORDINATE_TYPE>
1
5
255

> <PUBCHEM_BONDANNOTATIONS>
10  1  5
11  22  6
13  23  6
14  2  5
20  3  6
7  12  5
8  26  6
9  27  6

$$$$
44630173
  -OEChem-02061914152D

 29 31  0     1  0  0  0  0  0999 V2000
    5.4641   -4.8465    0.0000 O   0  0  0  0  0  0  0  0  0  0  0  0
    3.7320    1.1535    0.0000 C   0  0  2  0  0  0  0  0  0  0  0  0
    4.6783    1.4582    0.0000 C   0  0  2  0  0  0  0  0  0  0  0  0
    3.7320    0.1535    0.0000 C   0  0  1  0  0  0  0  0  0  0  0  0
    5.2619    0.6535    0.0000 C   0  0  0  0  0  0  0  0  0  0  0  0
    4.6783   -0.1512    0.0000 C   0  0  0  0  0  0  0  0  0  0  0  0
    2.8660    1.6535    0.0000 C   0  0  0  0  0  0  0  0  0  0  0  0
    4.9889    2.4087    0.0000 C   0  0  1  0  0  0  0  0  0  0  0  0
    2.8660   -0.3465    0.0000 C   0  0  0  0  0  0  0  0  0  0  0  0
    3.7320    2.1535    0.0000 C   0  0  0  0  0  0  0  0  0  0  0  0
    2.0000    1.1535    0.0000 C   0  0  0  0  0  0  0  0  0  0  0  0
    2.0000    0.1535    0.0000 C   0  0  0  0  0  0  0  0  0  0  0  0
    4.3211    3.1530    0.0000 C   0  0  0  0  0  0  0  0  0  0  0  0
    5.9674    2.6150    0.0000 C   0  0  0  0  0  0  0  0  0  0  0  0
    2.8660   -1.3465    0.0000 C   0  0  0  0  0  0  0  0  0  0  0  0
    6.2781    3.5655    0.0000 C   0  0  0  0  0  0  0  0  0  0  0  0
    3.7320   -1.8465    0.0000 C   0  0  0  0  0  0  0  0  0  0  0  0
    7.2566    3.7717    0.0000 C   0  0  1  0  0  0  0  0  0  0  0  0
    3.7320   -2.8465    0.0000 C   0  0  0  0  0  0  0  0  0  0  0  0
    7.5673    4.7222    0.0000 C   0  0  0  0  0  0  0  0  0  0  0  0
    4.5981   -3.3465    0.0000 C   0  0  0  0  0  0  0  0  0  0  0  0
    7.9244    3.0274    0.0000 C   0  0  0  0  0  0  0  0  0  0  0  0
    2.8660   -3.3465    0.0000 C   0  0  0  0  0  0  0  0  0  0  0  0
    4.5981   -4.3465    0.0000 C   0  0  2  0  0  0  0  0  0  0  0  0
    2.8660   -4.3465    0.0000 C   0  0  0  0  0  0  0  0  0  0  0  0
    3.7320   -4.8465    0.0000 C   0  0  0  0  0  0  0  0  0  0  0  0
    8.5458    4.9284    0.0000 C   0  0  0  0  0  0  0  0  0  0  0  0
    6.8994    5.4665    0.0000 C   0  0  0  0  0  0  0  0  0  0  0  0
    2.0000   -2.8465    0.0000 C   0  0  0  0  0  0  0  0  0  0  0  0
 24  1  1  1  0  0  0
  2  3  1  0  0  0  0
  2  4  1  0  0  0  0
  2  7  1  0  0  0  0
  2 10  1  1  0  0  0
  3  5  1  0  0  0  0
  3  8  1  0  0  0  0
  4  6  1  0  0  0  0
  4  9  1  0  0  0  0
  5  6  1  0  0  0  0
  7 11  1  0  0  0  0
  8 13  1  1  0  0  0
  8 14  1  0  0  0  0
  9 12  1  0  0  0  0
  9 15  2  0  0  0  0
 11 12  1  0  0  0  0
 14 16  2  0  0  0  0
 15 17  1  0  0  0  0
 16 18  1  0  0  0  0
 17 19  2  0  0  0  0
 18 20  1  0  0  0  0
 18 22  1  1  0  0  0
 19 21  1  0  0  0  0
 19 23  1  0  0  0  0
 20 27  1  0  0  0  0
 20 28  1  0  0  0  0
 21 24  1  0  0  0  0
 23 25  1  0  0  0  0
 23 29  2  0  0  0  0
 24 26  1  0  0  0  0
 25 26  1  0  0  0  0
M  END
> <PUBCHEM_COMPOUND_CID>
44630173

> <PUBCHEM_COMPOUND_CANONICALIZED>
1

> <PUBCHEM_CACTVS_COMPLEXITY>
678

> <PUBCHEM_CACTVS_HBOND_ACCEPTOR>
1

> <PUBCHEM_CACTVS_HBOND_DONOR>
1

> <PUBCHEM_CACTVS_ROTATABLE_BOND>
5

> <PUBCHEM_CACTVS_SUBSKEYS>
AAADcfB4IAAAAAAAAAAAAAAAAAAAAYAAAAAwYAAAAAAAAGAAAAAAGgAACAAADxSggAICAAAAAgCAAiBCAAAAAAAgAAAICAAAAAgIEAIAAQAAQAAEwAAIgAOAwMAPgAAAAAAAAAAAAAAAACAAAQAACAAAAA==

> <PUBCHEM_IUPAC_OPENEYE_NAME>
(1~{S},3~{Z})-3-[(2~{Z})-2-[(1~{R},3~{a}~{S},7~{a}~{R})-7~{a}-methyl-1-[(~{E},1~{S},4~{R})-1,4,5-trimethylhex-2-enyl]-2,3,3~{a},5,6,7-hexahydro-1~{H}-inden-4-ylidene]ethylidene]-4-methylene-cyclohexanol

> <PUBCHEM_IUPAC_CAS_NAME>
(1~{S},3~{Z})-3-[(2~{Z})-2-[(1~{R},3~{a}~{S},7~{a}~{R})-1-[(~{E},2~{S},5~{R})-5,6-dimethylhept-3-en-2-yl]-7~{a}-methyl-2,3,3~{a},5,6,7-hexahydro-1~{H}-inden-4-ylidene]ethylidene]-4-methylene-1-cyclohexanol

> <PUBCHEM_IUPAC_NAME>
(1~{S},3~{Z})-3-[(2~{Z})-2-[(1~{R},3~{a}~{S},7~{a}~{R})-1-[(~{E},2~{S},5~{R})-5,6-dimethylhept-3-en-2-yl]-7~{a}-methyl-2,3,3~{a},5,6,7-hexahydro-1~{H}-inden-4-ylidene]ethylidene]-4-methylidenecyclohexan-1-ol

> <PUBCHEM_IUPAC_SYSTEMATIC_NAME>
(1~{S},3~{Z})-3-[(2~{Z})-2-[(1~{R},3~{a}~{S},7~{a}~{R})-1-[(~{E},2~{S},5~{R})-5,6-dimethylhept-3-en-2-yl]-7~{a}-methyl-2,3,3~{a},5,6,7-hexahydro-1~{H}-inden-4-ylidene]ethylidene]-4-methylidene-cyclohexan-1-ol

> <PUBCHEM_IUPAC_TRADITIONAL_NAME>
(1~{S},3~{Z})-3-[(2~{Z})-2-[(1~{R},3~{a}~{S},7~{a}~{R})-7~{a}-methyl-1-[(~{E},1~{S},4~{R})-1,4,5-trimethylhex-2-enyl]-2,3,3~{a},5,6,7-hexahydro-1~{H}-inden-4-ylidene]ethylidene]-4-methylene-cyclohexanol

> <PUBCHEM_IUPAC_INCHI>
InChI=1S/C28H44O/c1-19(2)20(3)9-10-22(5)26-15-16-27-23(8-7-17-28(26,27)6)12-13-24-18-25(29)14-11-21(24)4/h9-10,12-13,19-20,22,25-27,29H,4,7-8,11,14-18H2,1-3,5-6H3/b10-9+,23-12-,24-13-/t20-,22-,25-,26+,27-,28+/m0/s1

> <PUBCHEM_IUPAC_INCHIKEY>
MECHNRXZTMCUDQ-CLTZFDELSA-N

> <PUBCHEM_XLOGP3_AA>
7.4

> <PUBCHEM_EXACT_MASS>
396.339

> <PUBCHEM_MOLECULAR_FORMULA>
C28H44O

> <PUBCHEM_MOLECULAR_WEIGHT>
396.659

> <PUBCHEM_OPENEYE_CAN_SMILES>
CC(C)C(C)C=CC(C)C1CCC2C1(CCCC2=CC=C3CC(CCC3=C)O)C

> <PUBCHEM_OPENEYE_ISO_SMILES>
C[C@@H](/C=C/[C@H](C)C(C)C)[C@H]1CC[C@@H]\2[C@@]1(CCC/C2=C/C=C\3/C[C@H](CCC3=C)O)C

> <PUBCHEM_CACTVS_TPSA>
20.2

> <PUBCHEM_MONOISOTOPIC_WEIGHT>
396.339

> <PUBCHEM_TOTAL_CHARGE>
0

> <PUBCHEM_HEAVY_ATOM_COUNT>
29

> <PUBCHEM_ATOM_DEF_STEREO_COUNT>
6

> <PUBCHEM_ATOM_UDEF_STEREO_COUNT>
0

> <PUBCHEM_BOND_DEF_STEREO_COUNT>
3

> <PUBCHEM_BOND_UDEF_STEREO_COUNT>
0

> <PUBCHEM_ISOTOPIC_ATOM_COUNT>
0

> <PUBCHEM_COMPONENT_COUNT>
1

> <PUBCHEM_CACTVS_TAUTO_COUNT>
-1

> <PUBCHEM_COORDINATE_TYPE>
1
5
255

> <PUBCHEM_BONDANNOTATIONS>
24  1  5
18  22  5
2  10  5
3  30  6
4  31  6
8  13  5

$$$$
7187
  -OEChem-02061913072D

 18 19  0     0  0  0  0  0  0999 V2000
    3.7320    0.5000    0.0000 O   0  0  0  0  0  0  0  0  0  0  0  0
    3.7320   -0.5000    0.0000 O   0  0  0  0  0  0  0  0  0  0  0  0
    2.0000   -0.5000    0.0000 O   0  0  0  0  0  0  0  0  0  0  0  0
    5.4641    0.5000    0.0000 O   0  0  0  0  0  0  0  0  0  0  0  0
    2.8660   -2.0000    0.0000 C   0  0  0  0  0  0  0  0  0  0  0  0
    4.5981    2.0000    0.0000 C   0  0  0  0  0  0  0  0  0  0  0  0
    2.0000   -2.5000    0.0000 C   0  0  0  0  0  0  0  0  0  0  0  0
    5.4641    2.5000    0.0000 C   0  0  0  0  0  0  0  0  0  0  0  0
    3.7320   -2.5000    0.0000 C   0  0  0  0  0  0  0  0  0  0  0  0
    3.7320    2.5000    0.0000 C   0  0  0  0  0  0  0  0  0  0  0  0
    2.0000   -3.5000    0.0000 C   0  0  0  0  0  0  0  0  0  0  0  0
    5.4641    3.5000    0.0000 C   0  0  0  0  0  0  0  0  0  0  0  0
    3.7320   -3.5000    0.0000 C   0  0  0  0  0  0  0  0  0  0  0  0
    3.7320    3.5000    0.0000 C   0  0  0  0  0  0  0  0  0  0  0  0
    4.5981    4.0000    0.0000 C   0  0  0  0  0  0  0  0  0  0  0  0
    2.8660   -4.0000    0.0000 C   0  0  0  0  0  0  0  0  0  0  0  0
    2.8660   -1.0000    0.0000 C   0  0  0  0  0  0  0  0  0  0  0  0
    4.5981    1.0000    0.0000 C   0  0  0  0  0  0  0  0  0  0  0  0
  1  2  1  0  0  0  0
  1 18  1  0  0  0  0
  2 17  1  0  0  0  0
  3 17  2  0  0  0  0
  4 18  2  0  0  0  0
  5  7  2  0  0  0  0
  5  9  1  0  0  0  0
  5 17  1  0  0  0  0
  6  8  2  0  0  0  0
  6 10  1  0  0  0  0
  6 18  1  0  0  0  0
  7 11  1  0  0  0  0
  8 12  1  0  0  0  0
  9 13  2  0  0  0  0
 10 14  2  0  0  0  0
 11 16  2  0  0  0  0
 12 15  2  0  0  0  0
 13 16  1  0  0  0  0
 14 15  1  0  0  0  0
M  END
> <PUBCHEM_COMPOUND_CID>
7187

> <PUBCHEM_COMPOUND_CANONICALIZED>
1

> <PUBCHEM_CACTVS_COMPLEXITY>
258

> <PUBCHEM_CACTVS_HBOND_ACCEPTOR>
4

> <PUBCHEM_CACTVS_HBOND_DONOR>
0

> <PUBCHEM_CACTVS_ROTATABLE_BOND>
5

> <PUBCHEM_CACTVS_SUBSKEYS>
AAADccBwOAAAAAAAAAAAAAAAAAAAAAAAAAAwYAAAAAAAAAABQAAAGgAABAAADACAmAAwCIAAAACIAiDSCAACAAAkAAAIiAEACMgIJjKAFRCAMQAkwAEIiYeIyCCOAAAAAAAAAAAAAAAAAAAAAAAAAAAAAA==

> <PUBCHEM_IUPAC_OPENEYE_NAME>
benzoyl benzenecarboperoxoate

> <PUBCHEM_IUPAC_CAS_NAME>
benzenecarboperoxoic acid benzoyl ester

> <PUBCHEM_IUPAC_NAME>
benzoyl benzenecarboperoxoate

> <PUBCHEM_IUPAC_SYSTEMATIC_NAME>
phenylcarbonyl benzenecarboperoxoate

> <PUBCHEM_IUPAC_TRADITIONAL_NAME>
benzenecarboperoxoic acid benzoyl ester

> <PUBCHEM_IUPAC_INCHI>
InChI=1S/C14H10O4/c15-13(11-7-3-1-4-8-11)17-18-14(16)12-9-5-2-6-10-12/h1-10H

> <PUBCHEM_IUPAC_INCHIKEY>
OMPJBNCRMGITSC-UHFFFAOYSA-N

> <PUBCHEM_XLOGP3_AA>
3.5

> <PUBCHEM_EXACT_MASS>
242.058

> <PUBCHEM_MOLECULAR_FORMULA>
C14H10O4

> <PUBCHEM_MOLECULAR_WEIGHT>
242.23

> <PUBCHEM_OPENEYE_CAN_SMILES>
C1=CC=C(C=C1)C(=O)OOC(=O)C2=CC=CC=C2

> <PUBCHEM_OPENEYE_ISO_SMILES>
C1=CC=C(C=C1)C(=O)OOC(=O)C2=CC=CC=C2

> <PUBCHEM_CACTVS_TPSA>
52.6

> <PUBCHEM_MONOISOTOPIC_WEIGHT>
242.058

> <PUBCHEM_TOTAL_CHARGE>
0

> <PUBCHEM_HEAVY_ATOM_COUNT>
18

> <PUBCHEM_ATOM_DEF_STEREO_COUNT>
0

> <PUBCHEM_ATOM_UDEF_STEREO_COUNT>
0

> <PUBCHEM_BOND_DEF_STEREO_COUNT>
0

> <PUBCHEM_BOND_UDEF_STEREO_COUNT>
0

> <PUBCHEM_ISOTOPIC_ATOM_COUNT>
0

> <PUBCHEM_COMPONENT_COUNT>
1

> <PUBCHEM_CACTVS_TAUTO_COUNT>
-1

> <PUBCHEM_COORDINATE_TYPE>
1
5
255

> <PUBCHEM_BONDANNOTATIONS>
10  14  8
11  16  8
12  15  8
13  16  8
14  15  8
5  7  8
5  9  8
6  10  8
6  8  8
7  11  8
8  12  8
9  13  8

$$$$
8346
  -OEChem-02061913072D

 28 28  0     0  0  0  0  0  0999 V2000
    8.9282   -3.2500    0.0000 O   0  0  0  0  0  0  0  0  0  0  0  0
   12.3923   -1.2500    0.0000 O   0  0  0  0  0  0  0  0  0  0  0  0
    9.7942   -1.7500    0.0000 O   0  0  0  0  0  0  0  0  0  0  0  0
   10.6603   -1.2500    0.0000 O   0  0  0  0  0  0  0  0  0  0  0  0
    5.4641   -3.2500    0.0000 C   0  0  0  0  0  0  0  0  0  0  0  0
   14.1244    1.7500    0.0000 C   0  0  0  0  0  0  0  0  0  0  0  0
   14.1244    2.7500    0.0000 C   0  0  0  0  0  0  0  0  0  0  0  0
    4.5981   -2.7500    0.0000 C   0  0  0  0  0  0  0  0  0  0  0  0
    6.3301   -2.7500    0.0000 C   0  0  0  0  0  0  0  0  0  0  0  0
   13.2583    1.2500    0.0000 C   0  0  0  0  0  0  0  0  0  0  0  0
    3.7320   -3.2500    0.0000 C   0  0  0  0  0  0  0  0  0  0  0  0
   14.9904    3.2500    0.0000 C   0  0  0  0  0  0  0  0  0  0  0  0
    7.1962   -3.2500    0.0000 C   0  0  0  0  0  0  0  0  0  0  0  0
   13.2583    0.2500    0.0000 C   0  0  0  0  0  0  0  0  0  0  0  0
    2.8660   -2.7500    0.0000 C   0  0  0  0  0  0  0  0  0  0  0  0
   14.9904    4.2500    0.0000 C   0  0  0  0  0  0  0  0  0  0  0  0
    8.0622   -2.7500    0.0000 C   0  0  0  0  0  0  0  0  0  0  0  0
   12.3923   -0.2500    0.0000 C   0  0  0  0  0  0  0  0  0  0  0  0
    2.0000   -3.2500    0.0000 C   0  0  0  0  0  0  0  0  0  0  0  0
   15.8564    4.7500    0.0000 C   0  0  0  0  0  0  0  0  0  0  0  0
   11.5263   -2.7500    0.0000 C   0  0  0  0  0  0  0  0  0  0  0  0
   10.6603   -3.2500    0.0000 C   0  0  0  0  0  0  0  0  0  0  0  0
   11.5263   -1.7500    0.0000 C   0  0  0  0  0  0  0  0  0  0  0  0
    9.7942   -2.7500    0.0000 C   0  0  0  0  0  0  0  0  0  0  0  0
   10.6603   -4.2500    0.0000 C   0  0  0  0  0  0  0  0  0  0  0  0
   12.3923   -3.2500    0.0000 C   0  0  0  0  0  0  0  0  0  0  0  0
   11.5263   -4.7500    0.0000 C   0  0  0  0  0  0  0  0  0  0  0  0
   12.3923   -4.2500    0.0000 C   0  0  0  0  0  0  0  0  0  0  0  0
  1 17  1  0  0  0  0
  1 24  1  0  0  0  0
  2 18  1  0  0  0  0
  2 23  1  0  0  0  0
  3 24  2  0  0  0  0
  4 23  2  0  0  0  0
  5  8  1  0  0  0  0
  5  9  1  0  0  0  0
  6  7  1  0  0  0  0
  6 10  1  0  0  0  0
  7 12  1  0  0  0  0
  8 11  1  0  0  0  0
  9 13  1  0  0  0  0
 10 14  1  0  0  0  0
 11 15  1  0  0  0  0
 12 16  1  0  0  0  0
 13 17  1  0  0  0  0
 14 18  1  0  0  0  0
 15 19  1  0  0  0  0
 16 20  1  0  0  0  0
 21 22  1  0  0  0  0
 21 23  1  0  0  0  0
 21 26  2  0  0  0  0
 22 24  1  0  0  0  0
 22 25  2  0  0  0  0
 25 27  1  0  0  0  0
 26 28  1  0  0  0  0
 27 28  2  0  0  0  0
M  END
> <PUBCHEM_COMPOUND_CID>
8346

> <PUBCHEM_COMPOUND_CANONICALIZED>
1

> <PUBCHEM_CACTVS_COMPLEXITY>
369

> <PUBCHEM_CACTVS_HBOND_ACCEPTOR>
4

> <PUBCHEM_CACTVS_HBOND_DONOR>
0

> <PUBCHEM_CACTVS_ROTATABLE_BOND>
18

> <PUBCHEM_CACTVS_SUBSKEYS>
AAADcfB4OAAAAAAAAAAAAAAAAAAAAAAAAAAwAAAAAAAAAAABAAAAGgAAAAAADACgmAIyCIAABACIAiDSCAACAAAkAAAIiAEACMgIJjKANRiCMQAkwAEIqYfLyKCOgAAAAAAQAAAAAAAAACAAAAAAAAAAAA==

> <PUBCHEM_IUPAC_OPENEYE_NAME>
dioctyl benzene-1,2-dicarboxylate

> <PUBCHEM_IUPAC_CAS_NAME>
benzene-1,2-dicarboxylic acid dioctyl ester

> <PUBCHEM_IUPAC_NAME>
dioctyl benzene-1,2-dicarboxylate

> <PUBCHEM_IUPAC_SYSTEMATIC_NAME>
dioctyl benzene-1,2-dicarboxylate

> <PUBCHEM_IUPAC_TRADITIONAL_NAME>
benzene-1,2-dicarboxylic acid dioctyl ester

> <PUBCHEM_IUPAC_INCHI>
InChI=1S/C24H38O4/c1-3-5-7-9-11-15-19-27-23(25)21-17-13-14-18-22(21)24(26)28-20-16-12-10-8-6-4-2/h13-14,17-18H,3-12,15-16,19-20H2,1-2H3

> <PUBCHEM_IUPAC_INCHIKEY>
MQIUGAXCHLFZKX-UHFFFAOYSA-N

> <PUBCHEM_XLOGP3>
9.1

> <PUBCHEM_EXACT_MASS>
390.277

> <PUBCHEM_MOLECULAR_FORMULA>
C24H38O4

> <PUBCHEM_MOLECULAR_WEIGHT>
390.564

> <PUBCHEM_OPENEYE_CAN_SMILES>
CCCCCCCCOC(=O)C1=CC=CC=C1C(=O)OCCCCCCCC

> <PUBCHEM_OPENEYE_ISO_SMILES>
CCCCCCCCOC(=O)C1=CC=CC=C1C(=O)OCCCCCCCC

> <PUBCHEM_CACTVS_TPSA>
52.6

> <PUBCHEM_MONOISOTOPIC_WEIGHT>
390.277

> <PUBCHEM_TOTAL_CHARGE>
0

> <PUBCHEM_HEAVY_ATOM_COUNT>
28

> <PUBCHEM_ATOM_DEF_STEREO_COUNT>
0

> <PUBCHEM_ATOM_UDEF_STEREO_COUNT>
0

> <PUBCHEM_BOND_DEF_STEREO_COUNT>
0

> <PUBCHEM_BOND_UDEF_STEREO_COUNT>
0

> <PUBCHEM_ISOTOPIC_ATOM_COUNT>
0

> <PUBCHEM_COMPONENT_COUNT>
1

> <PUBCHEM_CACTVS_TAUTO_COUNT>
-1

> <PUBCHEM_COORDINATE_TYPE>
1
5
255

> <PUBCHEM_BONDANNOTATIONS>
21  22  8
21  26  8
22  25  8
25  27  8
26  28  8
27  28  8

$$$$
15558051
  -OEChem-02061913532D

 18 19  0     0  0  0  0  0  0999 V2000
    5.4641    1.0000    0.0000 O   0  0  0  0  0  0  0  0  0  0  0  0
    4.5981   -0.5000    0.0000 O   0  0  0  0  0  0  0  0  0  0  0  0
    7.1962    1.0000    0.0000 C   0  0  0  0  0  0  0  0  0  0  0  0
    6.3301    0.5000    0.0000 C   0  0  0  0  0  0  0  0  0  0  0  0
    8.0622    0.5000    0.0000 C   0  0  0  0  0  0  0  0  0  0  0  0
    7.1962    2.0000    0.0000 C   0  0  0  0  0  0  0  0  0  0  0  0
    2.8660   -0.5000    0.0000 C   0  0  0  0  0  0  0  0  0  0  0  0
    8.9282    1.0000    0.0000 C   0  0  0  0  0  0  0  0  0  0  0  0
    8.0622    2.5000    0.0000 C   0  0  0  0  0  0  0  0  0  0  0  0
    8.9282    2.0000    0.0000 C   0  0  0  0  0  0  0  0  0  0  0  0
    2.8660    0.5000    0.0000 C   0  0  0  0  0  0  0  0  0  0  0  0
    3.7320   -1.0000    0.0000 C   0  0  0  0  0  0  0  0  0  0  0  0
    2.0000   -1.0000    0.0000 C   0  0  0  0  0  0  0  0  0  0  0  0
    3.7320    1.0000    0.0000 C   0  0  0  0  0  0  0  0  0  0  0  0
    4.5981    0.5000    0.0000 C   0  0  0  0  0  0  0  0  0  0  0  0
    3.7320   -2.0000    0.0000 C   0  0  0  0  0  0  0  0  0  0  0  0
    2.0000   -2.0000    0.0000 C   0  0  0  0  0  0  0  0  0  0  0  0
    2.8660   -2.5000    0.0000 C   0  0  0  0  0  0  0  0  0  0  0  0
  1  4  1  0  0  0  0
  1 15  1  0  0  0  0
  2 15  2  0  0  0  0
  3  4  1  0  0  0  0
  3  5  2  0  0  0  0
  3  6  1  0  0  0  0
  5  8  1  0  0  0  0
  6  9  2  0  0  0  0
  7 11  1  0  0  0  0
  7 12  2  0  0  0  0
  7 13  1  0  0  0  0
  8 10  2  0  0  0  0
  9 10  1  0  0  0  0
 11 14  2  0  0  0  0
 12 16  1  0  0  0  0
 13 17  2  0  0  0  0
 14 15  1  0  0  0  0
 16 18  2  0  0  0  0
 17 18  1  0  0  0  0
M  END
> <PUBCHEM_COMPOUND_CID>
15558051

> <PUBCHEM_COMPOUND_CANONICALIZED>
1

> <PUBCHEM_CACTVS_COMPLEXITY>
271

> <PUBCHEM_CACTVS_HBOND_ACCEPTOR>
2

> <PUBCHEM_CACTVS_HBOND_DONOR>
0

> <PUBCHEM_CACTVS_ROTATABLE_BOND>
5

> <PUBCHEM_CACTVS_SUBSKEYS>
AAADccB4MAAAAAAAAAAAAAAAAAAAAAAAAAAwYAAAAAAAAAABQAAAGgAAAAAADACgmAIwCIAABACIAiDSCAACAAAgAAAIiAAACMgIJiKAMRiCMAAkwAEIqYeAwCAOAAAAAAAAAAAAAAAAAAAAAAAAAAAAAA==

> <PUBCHEM_IUPAC_OPENEYE_NAME>
benzyl (~{Z})-3-phenylprop-2-enoate

> <PUBCHEM_IUPAC_CAS_NAME>
(~{Z})-3-phenyl-2-propenoic acid (phenylmethyl) ester

> <PUBCHEM_IUPAC_NAME>
benzyl (~{Z})-3-phenylprop-2-enoate

> <PUBCHEM_IUPAC_SYSTEMATIC_NAME>
(phenylmethyl) (~{Z})-3-phenylprop-2-enoate

> <PUBCHEM_IUPAC_TRADITIONAL_NAME>
(~{Z})-3-phenylacrylic acid benzyl ester

> <PUBCHEM_IUPAC_INCHI>
InChI=1S/C16H14O2/c17-16(12-11-14-7-3-1-4-8-14)18-13-15-9-5-2-6-10-15/h1-12H,13H2/b12-11-

> <PUBCHEM_IUPAC_INCHIKEY>
NGHOLYJTSCBCGC-QXMHVHEDSA-N

> <PUBCHEM_XLOGP3>
3.8

> <PUBCHEM_EXACT_MASS>
238.099

> <PUBCHEM_MOLECULAR_FORMULA>
C16H14O2

> <PUBCHEM_MOLECULAR_WEIGHT>
238.286

> <PUBCHEM_OPENEYE_CAN_SMILES>
C1=CC=C(C=C1)COC(=O)C=CC2=CC=CC=C2

> <PUBCHEM_OPENEYE_ISO_SMILES>
C1=CC=C(C=C1)COC(=O)/C=C\C2=CC=CC=C2

> <PUBCHEM_CACTVS_TPSA>
26.3

> <PUBCHEM_MONOISOTOPIC_WEIGHT>
238.099

> <PUBCHEM_TOTAL_CHARGE>
0

> <PUBCHEM_HEAVY_ATOM_COUNT>
18

> <PUBCHEM_ATOM_DEF_STEREO_COUNT>
0

> <PUBCHEM_ATOM_UDEF_STEREO_COUNT>
0

> <PUBCHEM_BOND_DEF_STEREO_COUNT>
1

> <PUBCHEM_BOND_UDEF_STEREO_COUNT>
0

> <PUBCHEM_ISOTOPIC_ATOM_COUNT>
0

> <PUBCHEM_COMPONENT_COUNT>
1

> <PUBCHEM_CACTVS_TAUTO_COUNT>
-1

> <PUBCHEM_COORDINATE_TYPE>
1
5
255

> <PUBCHEM_BONDANNOTATIONS>
12  16  8
13  17  8
16  18  8
17  18  8
3  5  8
3  6  8
5  8  8
6  9  8
7  12  8
7  13  8
8  10  8
9  10  8

$$$$
1201518
  -OEChem-02061913132D

 11 12  0     1  0  0  0  0  0999 V2000
    2.6176   -2.1937    0.0000 O   0  0  0  0  0  0  0  0  0  0  0  0
    4.4130   -0.6953    0.0000 C   0  0  1  0  0  0  0  0  0  0  0  0
    3.9352    1.2532    0.0000 C   0  0  0  0  0  0  0  0  0  0  0  0
    4.6718    0.2706    0.0000 C   0  0  2  0  0  0  0  0  0  0  0  0
    3.0403   -1.2874    0.0000 C   0  0  1  0  0  0  0  0  0  0  0  0
    5.8119   -1.2042    0.0000 C   0  0  0  0  0  0  0  0  0  0  0  0
    2.6982   -0.3477    0.0000 C   0  0  0  0  0  0  0  0  0  0  0  0
    6.0707   -0.2382    0.0000 C   0  0  0  0  0  0  0  0  0  0  0  0
    4.1541   -1.6613    0.0000 C   0  0  0  0  0  0  0  0  0  0  0  0
    4.0397    2.2477    0.0000 C   0  0  0  0  0  0  0  0  0  0  0  0
    3.0216    1.6599    0.0000 C   0  0  0  0  0  0  0  0  0  0  0  0
  5  1  1  6  0  0  0
  2  3  1  0  0  0  0
  2  5  1  0  0  0  0
  2  6  1  0  0  0  0
  2  9  1  1  0  0  0
  3  4  1  0  0  0  0
  3 10  1  0  0  0  0
  3 11  1  0  0  0  0
  4  7  1  0  0  0  0
  4  8  1  0  0  0  0
  5  7  1  0  0  0  0
  6  8  1  0  0  0  0
M  END
> <PUBCHEM_COMPOUND_CID>
1201518

> <PUBCHEM_COMPOUND_CANONICALIZED>
1

> <PUBCHEM_CACTVS_COMPLEXITY>
185

> <PUBCHEM_CACTVS_HBOND_ACCEPTOR>
1

> <PUBCHEM_CACTVS_HBOND_DONOR>
1

> <PUBCHEM_CACTVS_ROTATABLE_BOND>
0

> <PUBCHEM_CACTVS_SUBSKEYS>
AAADceBwIAAAAAAAAAAAAAAAAAAAAYMAAAAwAAAAAAAAAAAAAAAAGgAACAAADxSggAICAAAAAgAAAAAAAAAAAAAAAAAAAAAAAAAAEAIAAAAAQAAEAAAAAAGAwPAPgAAAAAAAAACAAAIAABAAAYAADAAAAA==

> <PUBCHEM_IUPAC_OPENEYE_NAME>
(1~{S},2~{R},4~{S})-1,7,7-trimethylnorbornan-2-ol

> <PUBCHEM_IUPAC_CAS_NAME>
(1~{S},2~{R},4~{S})-1,7,7-trimethyl-2-bicyclo[2.2.1]heptanol

> <PUBCHEM_IUPAC_NAME>
(1~{S},2~{R},4~{S})-1,7,7-trimethylbicyclo[2.2.1]heptan-2-ol

> <PUBCHEM_IUPAC_SYSTEMATIC_NAME>
(1~{S},2~{R},4~{S})-1,7,7-trimethylbicyclo[2.2.1]heptan-2-ol

> <PUBCHEM_IUPAC_TRADITIONAL_NAME>
(1~{S},2~{R},4~{S})-1,7,7-trimethylnorbornan-2-ol

> <PUBCHEM_IUPAC_INCHI>
InChI=1S/C10H18O/c1-9(2)7-4-5-10(9,3)8(11)6-7/h7-8,11H,4-6H2,1-3H3/t7-,8+,10+/m0/s1

> <PUBCHEM_IUPAC_INCHIKEY>
DTGKSKDOIYIVQL-QXFUBDJGSA-N

> <PUBCHEM_XLOGP3>
2.7

> <PUBCHEM_EXACT_MASS>
154.136

> <PUBCHEM_MOLECULAR_FORMULA>
C10H18O

> <PUBCHEM_MOLECULAR_WEIGHT>
154.253

> <PUBCHEM_OPENEYE_CAN_SMILES>
CC1(C2CCC1(C(C2)O)C)C

> <PUBCHEM_OPENEYE_ISO_SMILES>
C[C@]12CC[C@H](C1(C)C)C[C@H]2O

> <PUBCHEM_CACTVS_TPSA>
20.2

> <PUBCHEM_MONOISOTOPIC_WEIGHT>
154.136

> <PUBCHEM_TOTAL_CHARGE>
0

> <PUBCHEM_HEAVY_ATOM_COUNT>
11

> <PUBCHEM_ATOM_DEF_STEREO_COUNT>
3

> <PUBCHEM_ATOM_UDEF_STEREO_COUNT>
0

> <PUBCHEM_BOND_DEF_STEREO_COUNT>
0

> <PUBCHEM_BOND_UDEF_STEREO_COUNT>
0

> <PUBCHEM_ISOTOPIC_ATOM_COUNT>
0

> <PUBCHEM_COMPONENT_COUNT>
1

> <PUBCHEM_CACTVS_TAUTO_COUNT>
-1

> <PUBCHEM_COORDINATE_TYPE>
1
5
255

> <PUBCHEM_BONDANNOTATIONS>
5  1  6
2  9  5
4  12  6

$$$$
54680660
  -OEChem-02061914212D

 29 29  0     1  0  0  0  0  0999 V2000
    5.0868   -3.2929    0.0000 O   0  0  0  0  0  0  0  0  0  0  0  0
    5.0298   -6.3807    0.0000 O   0  0  0  0  0  0  0  0  0  0  0  0
    3.3548   -4.2929    0.0000 O   0  0  0  0  0  0  0  0  0  0  0  0
    6.8189   -3.2929    0.0000 O   0  0  0  0  0  0  0  0  0  0  0  0
    2.4608   -6.0716    0.0000 O   0  0  0  0  0  0  0  0  0  0  0  0
    3.1330   -8.1407    0.0000 O   0  0  0  0  0  0  0  0  0  0  0  0
    5.3086   -8.1407    0.0000 O   0  0  0  0  0  0  0  0  0  0  0  0
    8.5510    2.7071    0.0000 C   0  0  0  0  0  0  0  0  0  0  0  0
    9.4170    3.2071    0.0000 C   0  0  0  0  0  0  0  0  0  0  0  0
    8.5510    1.7071    0.0000 C   0  0  0  0  0  0  0  0  0  0  0  0
    9.4170    4.2071    0.0000 C   0  0  0  0  0  0  0  0  0  0  0  0
    7.6849    1.2071    0.0000 C   0  0  0  0  0  0  0  0  0  0  0  0
   10.2830    4.7071    0.0000 C   0  0  0  0  0  0  0  0  0  0  0  0
    7.6849    0.2071    0.0000 C   0  0  0  0  0  0  0  0  0  0  0  0
   10.2830    5.7071    0.0000 C   0  0  0  0  0  0  0  0  0  0  0  0
    6.8189   -0.2929    0.0000 C   0  0  0  0  0  0  0  0  0  0  0  0
   11.1490    6.2071    0.0000 C   0  0  0  0  0  0  0  0  0  0  0  0
    6.8189   -1.2929    0.0000 C   0  0  0  0  0  0  0  0  0  0  0  0
   11.1490    7.2071    0.0000 C   0  0  0  0  0  0  0  0  0  0  0  0
    5.9529   -1.7929    0.0000 C   0  0  0  0  0  0  0  0  0  0  0  0
   12.0151    7.7071    0.0000 C   0  0  0  0  0  0  0  0  0  0  0  0
    4.2208   -4.7929    0.0000 C   0  0  2  0  0  0  0  0  0  0  0  0
    4.2208   -5.7929    0.0000 C   0  0  2  0  0  0  0  0  0  0  0  0
    5.9529   -2.7929    0.0000 C   0  0  0  0  0  0  0  0  0  0  0  0
    5.0868   -4.2929    0.0000 C   0  0  0  0  0  0  0  0  0  0  0  0
   12.0151    8.7071    0.0000 C   0  0  0  0  0  0  0  0  0  0  0  0
    3.4118   -6.3807    0.0000 C   0  0  0  0  0  0  0  0  0  0  0  0
    3.7208   -7.3317    0.0000 C   0  0  0  0  0  0  0  0  0  0  0  0
    4.7208   -7.3317    0.0000 C   0  0  0  0  0  0  0  0  0  0  0  0
  1 24  1  0  0  0  0
  1 25  1  0  0  0  0
  2 23  1  0  0  0  0
  2 29  1  0  0  0  0
 22  3  1  1  0  0  0
  4 24  2  0  0  0  0
  5 27  1  0  0  0  0
  6 28  1  0  0  0  0
  7 29  2  0  0  0  0
  8  9  1  0  0  0  0
  8 10  1  0  0  0  0
  9 11  1  0  0  0  0
 10 12  1  0  0  0  0
 11 13  1  0  0  0  0
 12 14  1  0  0  0  0
 13 15  1  0  0  0  0
 14 16  1  0  0  0  0
 15 17  1  0  0  0  0
 16 18  1  0  0  0  0
 17 19  1  0  0  0  0
 18 20  1  0  0  0  0
 19 21  1  0  0  0  0
 20 24  1  0  0  0  0
 21 26  1  0  0  0  0
 22 23  1  0  0  0  0
 22 25  1  0  0  0  0
 23 27  1  0  0  0  0
 27 28  2  0  0  0  0
 28 29  1  0  0  0  0
M  END
> <PUBCHEM_COMPOUND_CID>
54680660

> <PUBCHEM_COMPOUND_CANONICALIZED>
1

> <PUBCHEM_CACTVS_COMPLEXITY>
515

> <PUBCHEM_CACTVS_HBOND_ACCEPTOR>
7

> <PUBCHEM_CACTVS_HBOND_DONOR>
3

> <PUBCHEM_CACTVS_ROTATABLE_BOND>
18

> <PUBCHEM_CACTVS_SUBSKEYS>
AAADcfB4OAAAAAAAAAAAAAAAAAAAAQAAAAAAAAAAAAAAAAAAAAAAGgAACAAACBSggAICCAAABgCIAADQCAIAAAAgIAAACAFAAEgBFBIAIAACUAAFwAALIQPIyKCAAAAAAAAAAAAAAAAAAAAAAAAAAAAAAA==

> <PUBCHEM_IUPAC_OPENEYE_NAME>
[(2~{S})-2-[(2~{R})-3,4-dihydroxy-5-oxo-2~{H}-furan-2-yl]-2-hydroxy-ethyl] hexadecanoate

> <PUBCHEM_IUPAC_CAS_NAME>
hexadecanoic acid [(2~{S})-2-[(2~{R})-3,4-dihydroxy-5-oxo-2~{H}-furan-2-yl]-2-hydroxyethyl] ester

> <PUBCHEM_IUPAC_NAME>
[(2~{S})-2-[(2~{R})-3,4-dihydroxy-5-oxo-2~{H}-furan-2-yl]-2-hydroxyethyl] hexadecanoate

> <PUBCHEM_IUPAC_SYSTEMATIC_NAME>
[(2~{S})-2-[(2~{R})-3,4-bis(oxidanyl)-5-oxidanylidene-2~{H}-furan-2-yl]-2-oxidanyl-ethyl] hexadecanoate

> <PUBCHEM_IUPAC_TRADITIONAL_NAME>
palmitic acid [(2~{S})-2-[(2~{R})-3,4-dihydroxy-5-keto-2~{H}-furan-2-yl]-2-hydroxy-ethyl] ester

> <PUBCHEM_IUPAC_INCHI>
InChI=1S/C22H38O7/c1-2-3-4-5-6-7-8-9-10-11-12-13-14-15-18(24)28-16-17(23)21-19(25)20(26)22(27)29-21/h17,21,23,25-26H,2-16H2,1H3/t17-,21+/m0/s1

> <PUBCHEM_IUPAC_INCHIKEY>
QAQJMLQRFWZOBN-LAUBAEHRSA-N

> <PUBCHEM_XLOGP3>
6.3

> <PUBCHEM_EXACT_MASS>
414.262

> <PUBCHEM_MOLECULAR_FORMULA>
C22H38O7

> <PUBCHEM_MOLECULAR_WEIGHT>
414.539

> <PUBCHEM_OPENEYE_CAN_SMILES>
CCCCCCCCCCCCCCCC(=O)OCC(C1C(=C(C(=O)O1)O)O)O

> <PUBCHEM_OPENEYE_ISO_SMILES>
CCCCCCCCCCCCCCCC(=O)OC[C@@H]([C@@H]1C(=C(C(=O)O1)O)O)O

> <PUBCHEM_CACTVS_TPSA>
113

> <PUBCHEM_MONOISOTOPIC_WEIGHT>
414.262

> <PUBCHEM_TOTAL_CHARGE>
0

> <PUBCHEM_HEAVY_ATOM_COUNT>
29

> <PUBCHEM_ATOM_DEF_STEREO_COUNT>
2

> <PUBCHEM_ATOM_UDEF_STEREO_COUNT>
0

> <PUBCHEM_BOND_DEF_STEREO_COUNT>
0

> <PUBCHEM_BOND_UDEF_STEREO_COUNT>
0

> <PUBCHEM_ISOTOPIC_ATOM_COUNT>
0

> <PUBCHEM_COMPONENT_COUNT>
1

> <PUBCHEM_CACTVS_TAUTO_COUNT>
-1

> <PUBCHEM_COORDINATE_TYPE>
1
5
255

> <PUBCHEM_BONDANNOTATIONS>
23  59  6
22  3  5

$$$$
1115
  -OEChem-02061913062D

 23 24  0     1  0  0  0  0  0999 V2000
    5.8671    0.7306    0.0000 O   0  0  0  0  0  0  0  0  0  0  0  0
    6.8671   -0.2694    0.0000 O   0  0  0  0  0  0  0  0  0  0  0  0
    5.1350   -0.2694    0.0000 O   0  0  0  0  0  0  0  0  0  0  0  0
    8.1271    1.9906    0.0000 O   0  0  0  0  0  0  0  0  0  0  0  0
    6.3671    3.2694    0.0000 O   0  0  0  0  0  0  0  0  0  0  0  0
    6.8671   -2.2694    0.0000 O   0  0  0  0  0  0  0  0  0  0  0  0
    5.1350   -3.2694    0.0000 O   0  0  0  0  0  0  0  0  0  0  0  0
    3.4030   -2.2694    0.0000 O   0  0  0  0  0  0  0  0  0  0  0  0
    8.5613    1.0907    0.0000 O   0  0  0  0  0  0  0  0  0  0  0  0
    4.3991    2.9688    0.0000 O   0  0  0  0  0  0  0  0  0  0  0  0
    2.5369   -0.7694    0.0000 O   0  0  0  0  0  0  0  0  0  0  0  0
    6.8671    0.7306    0.0000 C   0  0  3  0  0  0  0  0  0  0  0  0
    7.1761    1.6816    0.0000 C   0  0  3  0  0  0  0  0  0  0  0  0
    6.3671    2.2694    0.0000 C   0  0  3  0  0  0  0  0  0  0  0  0
    5.5580    1.6816    0.0000 C   0  0  3  0  0  0  0  0  0  0  0  0
    6.0010   -0.7694    0.0000 C   0  0  3  0  0  0  0  0  0  0  0  0
    6.0010   -1.7694    0.0000 C   0  0  3  0  0  0  0  0  0  0  0  0
    5.1350   -2.2694    0.0000 C   0  0  3  0  0  0  0  0  0  0  0  0
    4.2690   -1.7694    0.0000 C   0  0  3  0  0  0  0  0  0  0  0  0
    4.2690   -0.7694    0.0000 C   0  0  3  0  0  0  0  0  0  0  0  0
    7.8181    0.4216    0.0000 C   0  0  0  0  0  0  0  0  0  0  0  0
    4.6070    1.9906    0.0000 C   0  0  0  0  0  0  0  0  0  0  0  0
    3.4030   -0.2694    0.0000 C   0  0  0  0  0  0  0  0  0  0  0  0
  1 12  1  0  0  0  0
  1 15  1  0  0  0  0
  2 12  1  0  0  0  0
  2 16  1  0  0  0  0
  3 16  1  0  0  0  0
  3 20  1  0  0  0  0
  4 13  1  0  0  0  0
  5 14  1  0  0  0  0
  6 17  1  0  0  0  0
  7 18  1  0  0  0  0
  8 19  1  0  0  0  0
  9 21  1  0  0  0  0
 10 22  1  0  0  0  0
 11 23  1  0  0  0  0
 12 13  1  0  0  0  0
 12 21  1  0  0  0  0
 13 14  1  0  0  0  0
 14 15  1  0  0  0  0
 15 22  1  0  0  0  0
 16 17  1  0  0  0  0
 17 18  1  0  0  0  0
 18 19  1  0  0  0  0
 19 20  1  0  0  0  0
 20 23  1  0  0  0  0
M  END
> <PUBCHEM_COMPOUND_CID>
1115

> <PUBCHEM_COMPOUND_CANONICALIZED>
1

> <PUBCHEM_CACTVS_COMPLEXITY>
395

> <PUBCHEM_CACTVS_HBOND_ACCEPTOR>
11

> <PUBCHEM_CACTVS_HBOND_DONOR>
8

> <PUBCHEM_CACTVS_ROTATABLE_BOND>
5

> <PUBCHEM_CACTVS_SUBSKEYS>
AAADceBwPAAAAAAAAAAAAAAAAAAAASAAAAAkAAAAAAAAAAAAAAAAGgAACAAACBSwgAMACAAABgAAAAAAAAAAAAAAAAAAAAAAAAAREAIAAAAiQAAFAAAHAAHAYAwAAAAAAAAAAAAAAAAAAAAAAAAAAAAAAA==

> <PUBCHEM_IUPAC_OPENEYE_NAME>
2-[3,4-dihydroxy-2,5-bis(hydroxymethyl)tetrahydrofuran-2-yl]oxy-6-(hydroxymethyl)tetrahydropyran-3,4,5-triol

> <PUBCHEM_IUPAC_CAS_NAME>
2-[[3,4-dihydroxy-2,5-bis(hydroxymethyl)-2-oxolanyl]oxy]-6-(hydroxymethyl)oxane-3,4,5-triol

> <PUBCHEM_IUPAC_NAME>
2-[3,4-dihydroxy-2,5-bis(hydroxymethyl)oxolan-2-yl]oxy-6-(hydroxymethyl)oxane-3,4,5-triol

> <PUBCHEM_IUPAC_SYSTEMATIC_NAME>
2-[2,5-bis(hydroxymethyl)-3,4-bis(oxidanyl)oxolan-2-yl]oxy-6-(hydroxymethyl)oxane-3,4,5-triol

> <PUBCHEM_IUPAC_TRADITIONAL_NAME>
2-(3,4-dihydroxy-2,5-dimethylol-tetrahydrofuran-2-yl)oxy-6-methylol-tetrahydropyran-3,4,5-triol

> <PUBCHEM_IUPAC_INCHI>
InChI=1S/C12H22O11/c13-1-4-6(16)8(18)9(19)11(21-4)23-12(3-15)10(20)7(17)5(2-14)22-12/h4-11,13-20H,1-3H2

> <PUBCHEM_IUPAC_INCHIKEY>
CZMRCDWAGMRECN-UHFFFAOYSA-N

> <PUBCHEM_XLOGP3>
-3.7

> <PUBCHEM_EXACT_MASS>
342.116

> <PUBCHEM_MOLECULAR_FORMULA>
C12H22O11

> <PUBCHEM_MOLECULAR_WEIGHT>
342.297

> <PUBCHEM_OPENEYE_CAN_SMILES>
C(C1C(C(C(C(O1)OC2(C(C(C(O2)CO)O)O)CO)O)O)O)O

> <PUBCHEM_OPENEYE_ISO_SMILES>
C(C1C(C(C(C(O1)OC2(C(C(C(O2)CO)O)O)CO)O)O)O)O

> <PUBCHEM_CACTVS_TPSA>
190

> <PUBCHEM_MONOISOTOPIC_WEIGHT>
342.116

> <PUBCHEM_TOTAL_CHARGE>
0

> <PUBCHEM_HEAVY_ATOM_COUNT>
23

> <PUBCHEM_ATOM_DEF_STEREO_COUNT>
0

> <PUBCHEM_ATOM_UDEF_STEREO_COUNT>
9

> <PUBCHEM_BOND_DEF_STEREO_COUNT>
0

> <PUBCHEM_BOND_UDEF_STEREO_COUNT>
0

> <PUBCHEM_ISOTOPIC_ATOM_COUNT>
0

> <PUBCHEM_COMPONENT_COUNT>
1

> <PUBCHEM_CACTVS_TAUTO_COUNT>
-1

> <PUBCHEM_COORDINATE_TYPE>
1
5
255

> <PUBCHEM_BONDANNOTATIONS>
15  22  3
12  2  3
16  2  3
20  23  3
13  4  3
14  5  3
17  6  3
18  7  3
19  8  3

$$$$
129010310
  -OEChem-02061915082D

 29 31  0     1  0  0  0  0  0999 V2000
    5.4641   -4.8465    0.0000 O   0  0  0  0  0  0  0  0  0  0  0  0
    5.4641    1.1535    0.0000 C   0  0  2  0  0  0  0  0  0  0  0  0
    6.4103    1.4582    0.0000 C   0  0  3  0  0  0  0  0  0  0  0  0
    5.4641    0.1535    0.0000 C   0  0  1  0  0  0  0  0  0  0  0  0
    6.9939    0.6535    0.0000 C   0  0  0  0  0  0  0  0  0  0  0  0
    6.4103   -0.1512    0.0000 C   0  0  0  0  0  0  0  0  0  0  0  0
    4.5981    1.6535    0.0000 C   0  0  0  0  0  0  0  0  0  0  0  0
    6.7210    2.4087    0.0000 C   0  0  3  0  0  0  0  0  0  0  0  0
    4.5981   -0.3465    0.0000 C   0  0  0  0  0  0  0  0  0  0  0  0
    5.4641    2.1535    0.0000 C   0  0  0  0  0  0  0  0  0  0  0  0
    3.7320    1.1535    0.0000 C   0  0  0  0  0  0  0  0  0  0  0  0
    3.7320    0.1535    0.0000 C   0  0  0  0  0  0  0  0  0  0  0  0
    6.0531    3.1530    0.0000 C   0  0  0  0  0  0  0  0  0  0  0  0
    7.6995    2.6150    0.0000 C   0  0  0  0  0  0  0  0  0  0  0  0
    4.5981   -1.3465    0.0000 C   0  0  0  0  0  0  0  0  0  0  0  0
    8.0102    3.5655    0.0000 C   0  0  0  0  0  0  0  0  0  0  0  0
    3.7320   -1.8465    0.0000 C   0  0  0  0  0  0  0  0  0  0  0  0
    8.9887    3.7717    0.0000 C   0  0  3  0  0  0  0  0  0  0  0  0
    3.7320   -2.8465    0.0000 C   0  0  0  0  0  0  0  0  0  0  0  0
    9.2993    4.7222    0.0000 C   0  0  0  0  0  0  0  0  0  0  0  0
    4.5981   -3.3465    0.0000 C   0  0  0  0  0  0  0  0  0  0  0  0
    9.6565    3.0274    0.0000 C   0  0  0  0  0  0  0  0  0  0  0  0
    2.8660   -3.3465    0.0000 C   0  0  0  0  0  0  0  0  0  0  0  0
    4.5981   -4.3465    0.0000 C   0  0  3  0  0  0  0  0  0  0  0  0
    2.8660   -4.3465    0.0000 C   0  0  0  0  0  0  0  0  0  0  0  0
    3.7320   -4.8465    0.0000 C   0  0  0  0  0  0  0  0  0  0  0  0
   10.2778    4.9284    0.0000 C   0  0  0  0  0  0  0  0  0  0  0  0
    8.6315    5.4665    0.0000 C   0  0  0  0  0  0  0  0  0  0  0  0
    2.0000   -2.8465    0.0000 C   0  0  0  0  0  0  0  0  0  0  0  0
  1 24  1  0  0  0  0
  2  3  1  0  0  0  0
  2  4  1  0  0  0  0
  2  7  1  0  0  0  0
  2 10  1  1  0  0  0
  3  5  1  0  0  0  0
  3  8  1  0  0  0  0
  4  6  1  0  0  0  0
  4  9  1  0  0  0  0
  5  6  1  0  0  0  0
  7 11  1  0  0  0  0
  8 13  1  0  0  0  0
  8 14  1  0  0  0  0
  9 12  1  0  0  0  0
  9 15  2  3  0  0  0
 11 12  1  0  0  0  0
 14 16  2  3  0  0  0
 15 17  1  0  0  0  0
 16 18  1  0  0  0  0
 17 19  2  3  0  0  0
 18 20  1  0  0  0  0
 18 22  1  0  0  0  0
 19 21  1  0  0  0  0
 19 23  1  0  0  0  0
 20 27  1  0  0  0  0
 20 28  1  0  0  0  0
 21 24  1  0  0  0  0
 23 25  1  0  0  0  0
 23 29  2  0  0  0  0
 24 26  1  0  0  0  0
 25 26  1  0  0  0  0
M  END
> <PUBCHEM_COMPOUND_CID>
129010310

> <PUBCHEM_COMPOUND_CANONICALIZED>
1

> <PUBCHEM_CACTVS_COMPLEXITY>
678

> <PUBCHEM_CACTVS_HBOND_ACCEPTOR>
1

> <PUBCHEM_CACTVS_HBOND_DONOR>
1

> <PUBCHEM_CACTVS_ROTATABLE_BOND>
5

> <PUBCHEM_CACTVS_SUBSKEYS>
AAADcfB4IAAAAAAAAAAAAAAAAAAAAYAAAAAwYAAAAAAAAGAAAAAAGgAACAAADxSggAICAAAAAgCAAiBCAAAAAAAgAAAICAAAAAgIEAIAAQAAQAAEwAAIgAOAwMAPgAAAAAAAAAAAAAAAACAAAQAACAAAAA==

> <PUBCHEM_IUPAC_OPENEYE_NAME>
3-[2-[(3~{a}~{S},7~{a}~{R})-7~{a}-methyl-1-(1,4,5-trimethylhex-2-enyl)-2,3,3~{a},5,6,7-hexahydro-1~{H}-inden-4-ylidene]ethylidene]-4-methylene-cyclohexanol

> <PUBCHEM_IUPAC_CAS_NAME>
3-[2-[(3~{a}~{S},7~{a}~{R})-1-(5,6-dimethylhept-3-en-2-yl)-7~{a}-methyl-2,3,3~{a},5,6,7-hexahydro-1~{H}-inden-4-ylidene]ethylidene]-4-methylene-1-cyclohexanol

> <PUBCHEM_IUPAC_NAME>
3-[2-[(3~{a}~{S},7~{a}~{R})-1-(5,6-dimethylhept-3-en-2-yl)-7~{a}-methyl-2,3,3~{a},5,6,7-hexahydro-1~{H}-inden-4-ylidene]ethylidene]-4-methylidenecyclohexan-1-ol

> <PUBCHEM_IUPAC_SYSTEMATIC_NAME>
3-[2-[(3~{a}~{S},7~{a}~{R})-1-(5,6-dimethylhept-3-en-2-yl)-7~{a}-methyl-2,3,3~{a},5,6,7-hexahydro-1~{H}-inden-4-ylidene]ethylidene]-4-methylidene-cyclohexan-1-ol

> <PUBCHEM_IUPAC_TRADITIONAL_NAME>
3-[2-[(3~{a}~{S},7~{a}~{R})-7~{a}-methyl-1-(1,4,5-trimethylhex-2-enyl)-2,3,3~{a},5,6,7-hexahydro-1~{H}-inden-4-ylidene]ethylidene]-4-methylene-cyclohexanol

> <PUBCHEM_IUPAC_INCHI>
InChI=1S/C28H44O/c1-19(2)20(3)9-10-22(5)26-15-16-27-23(8-7-17-28(26,27)6)12-13-24-18-25(29)14-11-21(24)4/h9-10,12-13,19-20,22,25-27,29H,4,7-8,11,14-18H2,1-3,5-6H3/t20?,22?,25?,26?,27-,28+/m0/s1

> <PUBCHEM_IUPAC_INCHIKEY>
MECHNRXZTMCUDQ-BEYIWRGMSA-N

> <PUBCHEM_XLOGP3_AA>
7.4

> <PUBCHEM_EXACT_MASS>
396.339

> <PUBCHEM_MOLECULAR_FORMULA>
C28H44O

> <PUBCHEM_MOLECULAR_WEIGHT>
396.659

> <PUBCHEM_OPENEYE_CAN_SMILES>
CC(C)C(C)C=CC(C)C1CCC2C1(CCCC2=CC=C3CC(CCC3=C)O)C

> <PUBCHEM_OPENEYE_ISO_SMILES>
CC(C)C(C)C=CC(C)C1CC[C@@H]2[C@@]1(CCCC2=CC=C3CC(CCC3=C)O)C

> <PUBCHEM_CACTVS_TPSA>
20.2

> <PUBCHEM_MONOISOTOPIC_WEIGHT>
396.339

> <PUBCHEM_TOTAL_CHARGE>
0

> <PUBCHEM_HEAVY_ATOM_COUNT>
29

> <PUBCHEM_ATOM_DEF_STEREO_COUNT>
2

> <PUBCHEM_ATOM_UDEF_STEREO_COUNT>
4

> <PUBCHEM_BOND_DEF_STEREO_COUNT>
0

> <PUBCHEM_BOND_UDEF_STEREO_COUNT>
3

> <PUBCHEM_ISOTOPIC_ATOM_COUNT>
0

> <PUBCHEM_COMPONENT_COUNT>
1

> <PUBCHEM_CACTVS_TAUTO_COUNT>
-1

> <PUBCHEM_COORDINATE_TYPE>
1
5
255

> <PUBCHEM_BONDANNOTATIONS>
24  1  3
14  16  1
17  19  1
18  22  3
2  10  5
3  5  3
4  31  6
8  13  3
9  15  1

$$$$
31404
  -OEChem-02061913062D

 16 16  0     0  0  0  0  0  0999 V2000
    2.8660    0.4330    0.0000 O   0  0  0  0  0  0  0  0  0  0  0  0
    4.5981    1.4330    0.0000 C   0  0  0  0  0  0  0  0  0  0  0  0
    2.8660   -1.5670    0.0000 C   0  0  0  0  0  0  0  0  0  0  0  0
    4.5981    0.4330    0.0000 C   0  0  0  0  0  0  0  0  0  0  0  0
    3.7320   -1.0670    0.0000 C   0  0  0  0  0  0  0  0  0  0  0  0
    3.7320   -0.0670    0.0000 C   0  0  0  0  0  0  0  0  0  0  0  0
    5.4641   -0.0670    0.0000 C   0  0  0  0  0  0  0  0  0  0  0  0
    4.5981   -1.5670    0.0000 C   0  0  0  0  0  0  0  0  0  0  0  0
    4.5981    2.4330    0.0000 C   0  0  0  0  0  0  0  0  0  0  0  0
    5.5981    1.4330    0.0000 C   0  0  0  0  0  0  0  0  0  0  0  0
    3.5981    1.4330    0.0000 C   0  0  0  0  0  0  0  0  0  0  0  0
    2.0000   -2.0670    0.0000 C   0  0  0  0  0  0  0  0  0  0  0  0
    3.3660   -2.4330    0.0000 C   0  0  0  0  0  0  0  0  0  0  0  0
    2.3660   -0.7010    0.0000 C   0  0  0  0  0  0  0  0  0  0  0  0
    5.4641   -1.0670    0.0000 C   0  0  0  0  0  0  0  0  0  0  0  0
    6.3301   -1.5670    0.0000 C   0  0  0  0  0  0  0  0  0  0  0  0
  1  6  1  0  0  0  0
  2  4  1  0  0  0  0
  2  9  1  0  0  0  0
  2 10  1  0  0  0  0
  2 11  1  0  0  0  0
  3  5  1  0  0  0  0
  3 12  1  0  0  0  0
  3 13  1  0  0  0  0
  3 14  1  0  0  0  0
  4  6  2  0  0  0  0
  4  7  1  0  0  0  0
  5  6  1  0  0  0  0
  5  8  2  0  0  0  0
  7 15  2  0  0  0  0
  8 15  1  0  0  0  0
 15 16  1  0  0  0  0
M  END
> <PUBCHEM_COMPOUND_CID>
31404

> <PUBCHEM_COMPOUND_CANONICALIZED>
1

> <PUBCHEM_CACTVS_COMPLEXITY>
207

> <PUBCHEM_CACTVS_HBOND_ACCEPTOR>
1

> <PUBCHEM_CACTVS_HBOND_DONOR>
1

> <PUBCHEM_CACTVS_ROTATABLE_BOND>
2

> <PUBCHEM_CACTVS_SUBSKEYS>
AAADceBwIAAAAAAAAAAAAAAAAAAAAAAAAAAwAAAAAAAAAAABAAAAGgAACAAADgSAmAAyBoAAAgCAAiBCAAACAAAgIAAAiAAECIgIJiKCERKAcAAkwBEImAeAwOAPoAACAAAIAABAAAQAABAAAAAAAAAAAA==

> <PUBCHEM_IUPAC_OPENEYE_NAME>
2,6-di~{tert}-butyl-4-methyl-phenol

> <PUBCHEM_IUPAC_CAS_NAME>
2,6-di~{tert}-butyl-4-methylphenol

> <PUBCHEM_IUPAC_NAME>
2,6-di~{tert}-butyl-4-methylphenol

> <PUBCHEM_IUPAC_SYSTEMATIC_NAME>
2,6-di~{tert}-butyl-4-methyl-phenol

> <PUBCHEM_IUPAC_TRADITIONAL_NAME>
2,6-di~{tert}-butyl-4-methyl-phenol

> <PUBCHEM_IUPAC_INCHI>
InChI=1S/C15H24O/c1-10-8-11(14(2,3)4)13(16)12(9-10)15(5,6)7/h8-9,16H,1-7H3

> <PUBCHEM_IUPAC_INCHIKEY>
NLZUEZXRPGMBCV-UHFFFAOYSA-N

> <PUBCHEM_XLOGP3_AA>
5.3

> <PUBCHEM_EXACT_MASS>
220.183

> <PUBCHEM_MOLECULAR_FORMULA>
C15H24O

> <PUBCHEM_MOLECULAR_WEIGHT>
220.356

> <PUBCHEM_OPENEYE_CAN_SMILES>
CC1=CC(=C(C(=C1)C(C)(C)C)O)C(C)(C)C

> <PUBCHEM_OPENEYE_ISO_SMILES>
CC1=CC(=C(C(=C1)C(C)(C)C)O)C(C)(C)C

> <PUBCHEM_CACTVS_TPSA>
20.2

> <PUBCHEM_MONOISOTOPIC_WEIGHT>
220.183

> <PUBCHEM_TOTAL_CHARGE>
0

> <PUBCHEM_HEAVY_ATOM_COUNT>
16

> <PUBCHEM_ATOM_DEF_STEREO_COUNT>
0

> <PUBCHEM_ATOM_UDEF_STEREO_COUNT>
0

> <PUBCHEM_BOND_DEF_STEREO_COUNT>
0

> <PUBCHEM_BOND_UDEF_STEREO_COUNT>
0

> <PUBCHEM_ISOTOPIC_ATOM_COUNT>
0

> <PUBCHEM_COMPONENT_COUNT>
1

> <PUBCHEM_CACTVS_TAUTO_COUNT>
-1

> <PUBCHEM_COORDINATE_TYPE>
1
5
255

> <PUBCHEM_BONDANNOTATIONS>
4  6  8
4  7  8
5  6  8
5  8  8
7  15  8
8  15  8

$$$$
2519
  -OEChem-02061913062D

 14 15  0     0  0  0  0  0  0999 V2000
    3.7320    2.0000    0.0000 O   0  0  0  0  0  0  0  0  0  0  0  0
    2.0000   -1.0000    0.0000 O   0  0  0  0  0  0  0  0  0  0  0  0
    3.7320   -1.0000    0.0000 N   0  0  0  0  0  0  0  0  0  0  0  0
    5.5443    0.8047    0.0000 N   0  0  0  0  0  0  0  0  0  0  0  0
    2.8660    0.5000    0.0000 N   0  0  0  0  0  0  0  0  0  0  0  0
    5.5443   -0.8047    0.0000 N   0  0  0  0  0  0  0  0  0  0  0  0
    4.5981    0.5000    0.0000 C   0  0  0  0  0  0  0  0  0  0  0  0
    4.5981   -0.5000    0.0000 C   0  0  0  0  0  0  0  0  0  0  0  0
    3.7320    1.0000    0.0000 C   0  0  0  0  0  0  0  0  0  0  0  0
    2.8660   -0.5000    0.0000 C   0  0  0  0  0  0  0  0  0  0  0  0
    6.1279    0.0000    0.0000 C   0  0  0  0  0  0  0  0  0  0  0  0
    3.7320   -2.0000    0.0000 C   0  0  0  0  0  0  0  0  0  0  0  0
    5.8550    1.7552    0.0000 C   0  0  0  0  0  0  0  0  0  0  0  0
    2.0000    1.0000    0.0000 C   0  0  0  0  0  0  0  0  0  0  0  0
  1  9  2  0  0  0  0
  2 10  2  0  0  0  0
  3  8  1  0  0  0  0
  3 10  1  0  0  0  0
  3 12  1  0  0  0  0
  4  7  1  0  0  0  0
  4 11  1  0  0  0  0
  4 13  1  0  0  0  0
  5  9  1  0  0  0  0
  5 10  1  0  0  0  0
  5 14  1  0  0  0  0
  6  8  1  0  0  0  0
  6 11  2  0  0  0  0
  7  8  2  0  0  0  0
  7  9  1  0  0  0  0
M  END
> <PUBCHEM_COMPOUND_CID>
2519

> <PUBCHEM_COMPOUND_CANONICALIZED>
1

> <PUBCHEM_CACTVS_COMPLEXITY>
293

> <PUBCHEM_CACTVS_HBOND_ACCEPTOR>
3

> <PUBCHEM_CACTVS_HBOND_DONOR>
0

> <PUBCHEM_CACTVS_ROTATABLE_BOND>
0

> <PUBCHEM_CACTVS_SUBSKEYS>
AAADccBzsAAAAAAAAAAAAAAAAAAAAWAAAAAsAAAAAAAAAFgBgAAAHgAAAAAACAgBlgQHsBcMEACoAQdxdACAgC0XEKABUAGoVECASAhASCAUAIgIByJAAGAAAAAAAAAAAAAAAAAAAAAAAAAAAAAAAAAAAA==

> <PUBCHEM_IUPAC_OPENEYE_NAME>
1,3,7-trimethylpurine-2,6-dione

> <PUBCHEM_IUPAC_CAS_NAME>
1,3,7-trimethylpurine-2,6-dione

> <PUBCHEM_IUPAC_NAME>
1,3,7-trimethylpurine-2,6-dione

> <PUBCHEM_IUPAC_SYSTEMATIC_NAME>
1,3,7-trimethylpurine-2,6-dione

> <PUBCHEM_IUPAC_TRADITIONAL_NAME>
caffeine

> <PUBCHEM_IUPAC_INCHI>
InChI=1S/C8H10N4O2/c1-10-4-9-6-5(10)7(13)12(3)8(14)11(6)2/h4H,1-3H3

> <PUBCHEM_IUPAC_INCHIKEY>
RYYVLZVUVIJVGH-UHFFFAOYSA-N

> <PUBCHEM_XLOGP3>
-0.1

> <PUBCHEM_EXACT_MASS>
194.08

> <PUBCHEM_MOLECULAR_FORMULA>
C8H10N4O2

> <PUBCHEM_MOLECULAR_WEIGHT>
194.194

> <PUBCHEM_OPENEYE_CAN_SMILES>
CN1C=NC2=C1C(=O)N(C(=O)N2C)C

> <PUBCHEM_OPENEYE_ISO_SMILES>
CN1C=NC2=C1C(=O)N(C(=O)N2C)C

> <PUBCHEM_CACTVS_TPSA>
58.4

> <PUBCHEM_MONOISOTOPIC_WEIGHT>
194.08

> <PUBCHEM_TOTAL_CHARGE>
0

> <PUBCHEM_HEAVY_ATOM_COUNT>
14

> <PUBCHEM_ATOM_DEF_STEREO_COUNT>
0

> <PUBCHEM_ATOM_UDEF_STEREO_COUNT>
0

> <PUBCHEM_BOND_DEF_STEREO_COUNT>
0

> <PUBCHEM_BOND_UDEF_STEREO_COUNT>
0

> <PUBCHEM_ISOTOPIC_ATOM_COUNT>
0

> <PUBCHEM_COMPONENT_COUNT>
1

> <PUBCHEM_CACTVS_TAUTO_COUNT>
-1

> <PUBCHEM_COORDINATE_TYPE>
1
5
255

> <PUBCHEM_BONDANNOTATIONS>
3  10  8
3  8  8
4  11  8
4  7  8
5  10  8
5  9  8
6  11  8
6  8  8
7  8  8
7  9  8

$$$$
16133892
  -OEChem-02061913562D

122132  0     1  0  0  0  0  0999 V2000
   12.9292    1.0000    0.0000 O   0  0  0  0  0  0  0  0  0  0  0  0
   12.9292   -2.0000    0.0000 O   0  0  0  0  0  0  0  0  0  0  0  0
   11.1972   -1.0000    0.0000 O   0  0  0  0  0  0  0  0  0  0  0  0
   14.6613   -1.0000    0.0000 O   0  0  0  0  0  0  0  0  0  0  0  0
   14.6613    1.0000    0.0000 O   0  0  0  0  0  0  0  0  0  0  0  0
   11.1972    2.0000    0.0000 O   0  0  0  0  0  0  0  0  0  0  0  0
   11.1972   -2.0000    0.0000 O   0  0  0  0  0  0  0  0  0  0  0  0
   10.3312    0.5000    0.0000 O   0  0  0  0  0  0  0  0  0  0  0  0
   15.5273    0.5000    0.0000 O   0  0  0  0  0  0  0  0  0  0  0  0
   13.7953    2.5000    0.0000 O   0  0  0  0  0  0  0  0  0  0  0  0
    9.4651    2.0000    0.0000 O   0  0  0  0  0  0  0  0  0  0  0  0
   10.3312   -5.5000    0.0000 O   0  0  0  0  0  0  0  0  0  0  0  0
    6.8671   -0.5000    0.0000 O   0  0  0  0  0  0  0  0  0  0  0  0
   17.2594   -3.5000    0.0000 O   0  0  0  0  0  0  0  0  0  0  0  0
   13.7953   -5.5000    0.0000 O   0  0  0  0  0  0  0  0  0  0  0  0
    8.5991   -3.5000    0.0000 O   0  0  0  0  0  0  0  0  0  0  0  0
   18.9914   -0.5000    0.0000 O   0  0  0  0  0  0  0  0  0  0  0  0
   18.1254    2.0000    0.0000 O   0  0  0  0  0  0  0  0  0  0  0  0
   12.0632   -6.5000    0.0000 O   0  0  0  0  0  0  0  0  0  0  0  0
    6.8671   -2.5000    0.0000 O   0  0  0  0  0  0  0  0  0  0  0  0
   16.3933    5.0000    0.0000 O   0  0  0  0  0  0  0  0  0  0  0  0
   18.9914   -2.5000    0.0000 O   0  0  0  0  0  0  0  0  0  0  0  0
   18.1254    4.0000    0.0000 O   0  0  0  0  0  0  0  0  0  0  0  0
   12.0632    5.5000    0.0000 O   0  0  0  0  0  0  0  0  0  0  0  0
    8.5991    5.5000    0.0000 O   0  0  0  0  0  0  0  0  0  0  0  0
   10.3312    6.5000    0.0000 O   0  0  0  0  0  0  0  0  0  0  0  0
   11.1972   -7.0000    0.0000 O   0  0  0  0  0  0  0  0  0  0  0  0
    6.0010   -2.0000    0.0000 O   0  0  0  0  0  0  0  0  0  0  0  0
   18.9914   -3.5000    0.0000 O   0  0  0  0  0  0  0  0  0  0  0  0
   18.9914    3.5000    0.0000 O   0  0  0  0  0  0  0  0  0  0  0  0
   11.1972    7.0000    0.0000 O   0  0  0  0  0  0  0  0  0  0  0  0
    6.8671   -6.5000    0.0000 O   0  0  0  0  0  0  0  0  0  0  0  0
    8.5991   -9.5000    0.0000 O   0  0  0  0  0  0  0  0  0  0  0  0
    4.2690    2.0000    0.0000 O   0  0  0  0  0  0  0  0  0  0  0  0
    2.5369   -1.0000    0.0000 O   0  0  0  0  0  0  0  0  0  0  0  0
   19.8574   -7.0000    0.0000 O   0  0  0  0  0  0  0  0  0  0  0  0
   16.3933   -7.0000    0.0000 O   0  0  0  0  0  0  0  0  0  0  0  0
    6.8671   -8.5000    0.0000 O   0  0  0  0  0  0  0  0  0  0  0  0
    2.5369    1.0000    0.0000 O   0  0  0  0  0  0  0  0  0  0  0  0
   22.4555    2.5000    0.0000 O   0  0  0  0  0  0  0  0  0  0  0  0
   20.7235   -0.5000    0.0000 O   0  0  0  0  0  0  0  0  0  0  0  0
   18.1254   -8.0000    0.0000 O   0  0  0  0  0  0  0  0  0  0  0  0
   22.4555    0.5000    0.0000 O   0  0  0  0  0  0  0  0  0  0  0  0
   15.5273    6.5000    0.0000 O   0  0  0  0  0  0  0  0  0  0  0  0
   13.7953    9.5000    0.0000 O   0  0  0  0  0  0  0  0  0  0  0  0
   15.5273    8.5000    0.0000 O   0  0  0  0  0  0  0  0  0  0  0  0
   12.9292   -1.0000    0.0000 C   0  0  2  0  0  0  0  0  0  0  0  0
   12.0632   -0.5000    0.0000 C   0  0  2  0  0  0  0  0  0  0  0  0
   13.7953   -0.5000    0.0000 C   0  0  1  0  0  0  0  0  0  0  0  0
   12.0632    0.5000    0.0000 C   0  0  2  0  0  0  0  0  0  0  0  0
   13.7953    0.5000    0.0000 C   0  0  2  0  0  0  0  0  0  0  0  0
   11.1972    1.0000    0.0000 C   0  0  0  0  0  0  0  0  0  0  0  0
   12.0632   -2.5000    0.0000 C   0  0  0  0  0  0  0  0  0  0  0  0
   10.3312   -0.5000    0.0000 C   0  0  0  0  0  0  0  0  0  0  0  0
   15.5273   -0.5000    0.0000 C   0  0  0  0  0  0  0  0  0  0  0  0
   14.6613    2.0000    0.0000 C   0  0  0  0  0  0  0  0  0  0  0  0
   12.0632   -3.5000    0.0000 C   0  0  0  0  0  0  0  0  0  0  0  0
    9.4651   -1.0000    0.0000 C   0  0  0  0  0  0  0  0  0  0  0  0
   16.3933   -1.0000    0.0000 C   0  0  0  0  0  0  0  0  0  0  0  0
   10.3312    2.5000    0.0000 C   0  0  0  0  0  0  0  0  0  0  0  0
   15.5273    2.5000    0.0000 C   0  0  0  0  0  0  0  0  0  0  0  0
   10.3312    3.5000    0.0000 C   0  0  0  0  0  0  0  0  0  0  0  0
   11.1972   -4.0000    0.0000 C   0  0  0  0  0  0  0  0  0  0  0  0
    8.5991   -0.5000    0.0000 C   0  0  0  0  0  0  0  0  0  0  0  0
   12.9292   -4.0000    0.0000 C   0  0  0  0  0  0  0  0  0  0  0  0
    9.4651   -2.0000    0.0000 C   0  0  0  0  0  0  0  0  0  0  0  0
   16.3933   -2.0000    0.0000 C   0  0  0  0  0  0  0  0  0  0  0  0
   17.2594   -0.5000    0.0000 C   0  0  0  0  0  0  0  0  0  0  0  0
   16.3933    2.0000    0.0000 C   0  0  0  0  0  0  0  0  0  0  0  0
   15.5273    3.5000    0.0000 C   0  0  0  0  0  0  0  0  0  0  0  0
   11.1972   -5.0000    0.0000 C   0  0  0  0  0  0  0  0  0  0  0  0
    7.7331   -1.0000    0.0000 C   0  0  0  0  0  0  0  0  0  0  0  0
   12.9292   -5.0000    0.0000 C   0  0  0  0  0  0  0  0  0  0  0  0
    8.5991   -2.5000    0.0000 C   0  0  0  0  0  0  0  0  0  0  0  0
   17.2594   -2.5000    0.0000 C   0  0  0  0  0  0  0  0  0  0  0  0
   18.1254   -1.0000    0.0000 C   0  0  0  0  0  0  0  0  0  0  0  0
   11.1972    4.0000    0.0000 C   0  0  0  0  0  0  0  0  0  0  0  0
    9.4651    4.0000    0.0000 C   0  0  0  0  0  0  0  0  0  0  0  0
   12.0632   -5.5000    0.0000 C   0  0  0  0  0  0  0  0  0  0  0  0
    7.7331   -2.0000    0.0000 C   0  0  0  0  0  0  0  0  0  0  0  0
   17.2594    2.5000    0.0000 C   0  0  0  0  0  0  0  0  0  0  0  0
   16.3933    4.0000    0.0000 C   0  0  0  0  0  0  0  0  0  0  0  0
   18.1254   -2.0000    0.0000 C   0  0  0  0  0  0  0  0  0  0  0  0
   17.2594    3.5000    0.0000 C   0  0  0  0  0  0  0  0  0  0  0  0
   11.1972    5.0000    0.0000 C   0  0  0  0  0  0  0  0  0  0  0  0
    9.4651    5.0000    0.0000 C   0  0  0  0  0  0  0  0  0  0  0  0
   10.3312    5.5000    0.0000 C   0  0  0  0  0  0  0  0  0  0  0  0
   10.3312   -6.5000    0.0000 C   0  0  0  0  0  0  0  0  0  0  0  0
    6.0010   -1.0000    0.0000 C   0  0  0  0  0  0  0  0  0  0  0  0
   18.1254   -4.0000    0.0000 C   0  0  0  0  0  0  0  0  0  0  0  0
   18.9914    2.5000    0.0000 C   0  0  0  0  0  0  0  0  0  0  0  0
    9.4651   -7.0000    0.0000 C   0  0  0  0  0  0  0  0  0  0  0  0
    5.1350   -0.5000    0.0000 C   0  0  0  0  0  0  0  0  0  0  0  0
   12.0632    6.5000    0.0000 C   0  0  0  0  0  0  0  0  0  0  0  0
   18.1254   -5.0000    0.0000 C   0  0  0  0  0  0  0  0  0  0  0  0
   19.8574    2.0000    0.0000 C   0  0  0  0  0  0  0  0  0  0  0  0
   12.9292    7.0000    0.0000 C   0  0  0  0  0  0  0  0  0  0  0  0
    9.4651   -8.0000    0.0000 C   0  0  0  0  0  0  0  0  0  0  0  0
    8.5991   -6.5000    0.0000 C   0  0  0  0  0  0  0  0  0  0  0  0
    4.2690   -1.0000    0.0000 C   0  0  0  0  0  0  0  0  0  0  0  0
    5.1350    0.5000    0.0000 C   0  0  0  0  0  0  0  0  0  0  0  0
   17.2594   -5.5000    0.0000 C   0  0  0  0  0  0  0  0  0  0  0  0
   18.9914   -5.5000    0.0000 C   0  0  0  0  0  0  0  0  0  0  0  0
   19.8574    1.0000    0.0000 C   0  0  0  0  0  0  0  0  0  0  0  0
   20.7235    2.5000    0.0000 C   0  0  0  0  0  0  0  0  0  0  0  0
    7.7331   -7.0000    0.0000 C   0  0  0  0  0  0  0  0  0  0  0  0
    8.5991   -8.5000    0.0000 C   0  0  0  0  0  0  0  0  0  0  0  0
    4.2690    1.0000    0.0000 C   0  0  0  0  0  0  0  0  0  0  0  0
    3.4030   -0.5000    0.0000 C   0  0  0  0  0  0  0  0  0  0  0  0
   18.9914   -6.5000    0.0000 C   0  0  0  0  0  0  0  0  0  0  0  0
   17.2594   -6.5000    0.0000 C   0  0  0  0  0  0  0  0  0  0  0  0
   12.9292    8.0000    0.0000 C   0  0  0  0  0  0  0  0  0  0  0  0
   13.7953    6.5000    0.0000 C   0  0  0  0  0  0  0  0  0  0  0  0
    7.7331   -8.0000    0.0000 C   0  0  0  0  0  0  0  0  0  0  0  0
    3.4030    0.5000    0.0000 C   0  0  0  0  0  0  0  0  0  0  0  0
   21.5895    2.0000    0.0000 C   0  0  0  0  0  0  0  0  0  0  0  0
   20.7235    0.5000    0.0000 C   0  0  0  0  0  0  0  0  0  0  0  0
   18.1254   -7.0000    0.0000 C   0  0  0  0  0  0  0  0  0  0  0  0
   21.5895    1.0000    0.0000 C   0  0  0  0  0  0  0  0  0  0  0  0
   14.6613    7.0000    0.0000 C   0  0  0  0  0  0  0  0  0  0  0  0
   13.7953    8.5000    0.0000 C   0  0  0  0  0  0  0  0  0  0  0  0
   14.6613    8.0000    0.0000 C   0  0  0  0  0  0  0  0  0  0  0  0
  1 50  1  0  0  0  0
  1 51  1  0  0  0  0
 47  2  1  6  0  0  0
  2 53  1  0  0  0  0
 48  3  1  1  0  0  0
  3 54  1  0  0  0  0
 49  4  1  1  0  0  0
  4 55  1  0  0  0  0
 51  5  1  6  0  0  0
  5 56  1  0  0  0  0
  6 52  1  0  0  0  0
  6 60  1  0  0  0  0
  7 53  2  0  0  0  0
  8 54  2  0  0  0  0
  9 55  2  0  0  0  0
 10 56  2  0  0  0  0
 11 60  2  0  0  0  0
 12 71  1  0  0  0  0
 12 88  1  0  0  0  0
 13 72  1  0  0  0  0
 13 89  1  0  0  0  0
 14 75  1  0  0  0  0
 14 90  1  0  0  0  0
 15 73  1  0  0  0  0
 16 74  1  0  0  0  0
 17 76  1  0  0  0  0
 18 81  1  0  0  0  0
 18 91  1  0  0  0  0
 19 79  1  0  0  0  0
 20 80  1  0  0  0  0
 21 82  1  0  0  0  0
 22 83  1  0  0  0  0
 23 84  1  0  0  0  0
 24 85  1  0  0  0  0
 24 94  1  0  0  0  0
 25 86  1  0  0  0  0
 26 87  1  0  0  0  0
 27 88  2  0  0  0  0
 28 89  2  0  0  0  0
 29 90  2  0  0  0  0
 30 91  2  0  0  0  0
 31 94  2  0  0  0  0
 32106  1  0  0  0  0
 33107  1  0  0  0  0
 34108  1  0  0  0  0
 35109  1  0  0  0  0
 36110  1  0  0  0  0
 37111  1  0  0  0  0
 38114  1  0  0  0  0
 39115  1  0  0  0  0
 40116  1  0  0  0  0
 41117  1  0  0  0  0
 42118  1  0  0  0  0
 43119  1  0  0  0  0
 44120  1  0  0  0  0
 45121  1  0  0  0  0
 46122  1  0  0  0  0
 47 48  1  0  0  0  0
 47 49  1  0  0  0  0
 48 50  1  0  0  0  0
 49 51  1  0  0  0  0
 50 52  1  6  0  0  0
 53 57  1  0  0  0  0
 54 58  1  0  0  0  0
 55 59  1  0  0  0  0
 56 61  1  0  0  0  0
 57 63  1  0  0  0  0
 57 65  2  0  0  0  0
 58 64  1  0  0  0  0
 58 66  2  0  0  0  0
 59 67  1  0  0  0  0
 59 68  2  0  0  0  0
 60 62  1  0  0  0  0
 61 69  1  0  0  0  0
 61 70  2  0  0  0  0
 62 77  1  0  0  0  0
 62 78  2  0  0  0  0
 63 71  2  0  0  0  0
 64 72  2  0  0  0  0
 65 73  1  0  0  0  0
 66 74  1  0  0  0  0
 67 75  2  0  0  0  0
 68 76  1  0  0  0  0
 69 81  2  0  0  0  0
 70 82  1  0  0  0  0
 71 79  1  0  0  0  0
 72 80  1  0  0  0  0
 73 79  2  0  0  0  0
 74 80  2  0  0  0  0
 75 83  1  0  0  0  0
 76 83  2  0  0  0  0
 77 85  2  0  0  0  0
 78 86  1  0  0  0  0
 81 84  1  0  0  0  0
 82 84  2  0  0  0  0
 85 87  1  0  0  0  0
 86 87  2  0  0  0  0
 88 92  1  0  0  0  0
 89 93  1  0  0  0  0
 90 95  1  0  0  0  0
 91 96  1  0  0  0  0
 92 98  2  0  0  0  0
 92 99  1  0  0  0  0
 93100  2  0  0  0  0
 93101  1  0  0  0  0
 94 97  1  0  0  0  0
 95102  2  0  0  0  0
 95103  1  0  0  0  0
 96104  2  0  0  0  0
 96105  1  0  0  0  0
 97112  2  0  0  0  0
 97113  1  0  0  0  0
 98107  1  0  0  0  0
 99106  2  0  0  0  0
100109  1  0  0  0  0
101108  2  0  0  0  0
102111  1  0  0  0  0
103110  2  0  0  0  0
104117  1  0  0  0  0
105116  2  0  0  0  0
106114  1  0  0  0  0
107114  2  0  0  0  0
108115  1  0  0  0  0
109115  2  0  0  0  0
110118  1  0  0  0  0
111118  2  0  0  0  0
112121  1  0  0  0  0
113120  2  0  0  0  0
116119  1  0  0  0  0
117119  2  0  0  0  0
120122  1  0  0  0  0
121122  2  0  0  0  0
M  END
> <PUBCHEM_COMPOUND_CID>
16133892

> <PUBCHEM_COMPOUND_CANONICALIZED>
1

> <PUBCHEM_CACTVS_COMPLEXITY>
3570

> <PUBCHEM_CACTVS_HBOND_ACCEPTOR>
46

> <PUBCHEM_CACTVS_HBOND_DONOR>
25

> <PUBCHEM_CACTVS_ROTATABLE_BOND>
31

> <PUBCHEM_CACTVS_SUBSKEYS>
AAADcfB8PgAAAAAAAAAAAAAAAAAAAAAAAAA0YMGDAAAAAAABVAAAGgAACAAADBSwmAMwDoAABgCIAiDSCAACCAAkIAAAiAEGiMgdJzKGNRqieyOlwBUPuYfK7DzOIAABCAAAQABAAAIQAACAAAAAAAAAAA==

> <PUBCHEM_IUPAC_OPENEYE_NAME>
[2,3-dihydroxy-5-[[(2~{S},3~{S},4~{R},5~{S},6~{R})-3,4,5,6-tetrakis[[3,4-dihydroxy-5-(3,4,5-trihydroxybenzoyl)oxy-benzoyl]oxy]tetrahydropyran-2-yl]methoxycarbonyl]phenyl] 3,4,5-trihydroxybenzoate

> <PUBCHEM_IUPAC_CAS_NAME>
3,4,5-trihydroxybenzoic acid [2,3-dihydroxy-5-[oxo-[[(2~{S},3~{S},4~{R},5~{S},6~{R})-3,4,5,6-tetrakis[[3,4-dihydroxy-5-[oxo-(3,4,5-trihydroxyphenyl)methoxy]phenyl]-oxomethoxy]-2-oxanyl]methoxy]methyl]phenyl] ester

> <PUBCHEM_IUPAC_NAME>
[2,3-dihydroxy-5-[[(2~{S},3~{S},4~{R},5~{S},6~{R})-3,4,5,6-tetrakis[[3,4-dihydroxy-5-(3,4,5-trihydroxybenzoyl)oxybenzoyl]oxy]oxan-2-yl]methoxycarbonyl]phenyl] 3,4,5-trihydroxybenzoate

> <PUBCHEM_IUPAC_SYSTEMATIC_NAME>
[2,3-bis(oxidanyl)-5-[[(2~{S},3~{S},4~{R},5~{S},6~{R})-3,4,5,6-tetrakis[[3,4-bis(oxidanyl)-5-[3,4,5-tris(oxidanyl)phenyl]carbonyloxy-phenyl]carbonyloxy]oxan-2-yl]methoxycarbonyl]phenyl] 3,4,5-tris(oxidanyl)benzoate

> <PUBCHEM_IUPAC_TRADITIONAL_NAME>
3,4,5-trihydroxybenzoic acid [2,3-dihydroxy-5-[[(2~{S},3~{S},4~{R},5~{S},6~{R})-3,4,5,6-tetrakis[(3-galloyloxy-4,5-dihydroxy-benzoyl)oxy]tetrahydropyran-2-yl]methoxycarbonyl]phenyl] ester

> <PUBCHEM_IUPAC_INCHI>
InChI=1S/C76H52O46/c77-32-1-22(2-33(78)53(32)92)67(103)113-47-16-27(11-42(87)58(47)97)66(102)112-21-52-63(119-72(108)28-12-43(88)59(98)48(17-28)114-68(104)23-3-34(79)54(93)35(80)4-23)64(120-73(109)29-13-44(89)60(99)49(18-29)115-69(105)24-5-36(81)55(94)37(82)6-24)65(121-74(110)30-14-45(90)61(100)50(19-30)116-70(106)25-7-38(83)56(95)39(84)8-25)76(118-52)122-75(111)31-15-46(91)62(101)51(20-31)117-71(107)26-9-40(85)57(96)41(86)10-26/h1-20,52,63-65,76-101H,21H2/t52-,63-,64+,65-,76+/m0/s1

> <PUBCHEM_IUPAC_INCHIKEY>
LRBQNJMCXXYXIU-QWKBTXIPSA-N

> <PUBCHEM_XLOGP3_AA>
6.2

> <PUBCHEM_EXACT_MASS>
1700.173

> <PUBCHEM_MOLECULAR_FORMULA>
C76H52O46

> <PUBCHEM_MOLECULAR_WEIGHT>
1701.206

> <PUBCHEM_OPENEYE_CAN_SMILES>
C1=C(C=C(C(=C1O)O)O)C(=O)OC2=CC(=CC(=C2O)O)C(=O)OCC3C(C(C(C(O3)OC(=O)C4=CC(=C(C(=C4)OC(=O)C5=CC(=C(C(=C5)O)O)O)O)O)OC(=O)C6=CC(=C(C(=C6)OC(=O)C7=CC(=C(C(=C7)O)O)O)O)O)OC(=O)C8=CC(=C(C(=C8)OC(=O)C9=CC(=C(C(=C9)O)O)O)O)O)OC(=O)C1=CC(=C(C(=C1)OC(=O)C1=CC(=C(C(=C1)O)O)O)O)O

> <PUBCHEM_OPENEYE_ISO_SMILES>
C1=C(C=C(C(=C1O)O)O)C(=O)OC2=CC(=CC(=C2O)O)C(=O)OC[C@H]3[C@@H]([C@H]([C@@H]([C@H](O3)OC(=O)C4=CC(=C(C(=C4)OC(=O)C5=CC(=C(C(=C5)O)O)O)O)O)OC(=O)C6=CC(=C(C(=C6)OC(=O)C7=CC(=C(C(=C7)O)O)O)O)O)OC(=O)C8=CC(=C(C(=C8)OC(=O)C9=CC(=C(C(=C9)O)O)O)O)O)OC(=O)C1=CC(=C(C(=C1)OC(=O)C1=CC(=C(C(=C1)O)O)O)O)O

> <PUBCHEM_CACTVS_TPSA>
778

> <PUBCHEM_MONOISOTOPIC_WEIGHT>
1700.173

> <PUBCHEM_TOTAL_CHARGE>
0

> <PUBCHEM_HEAVY_ATOM_COUNT>
122

> <PUBCHEM_ATOM_DEF_STEREO_COUNT>
5

> <PUBCHEM_ATOM_UDEF_STEREO_COUNT>
0

> <PUBCHEM_BOND_DEF_STEREO_COUNT>
0

> <PUBCHEM_BOND_UDEF_STEREO_COUNT>
0

> <PUBCHEM_ISOTOPIC_ATOM_COUNT>
0

> <PUBCHEM_COMPONENT_COUNT>
1

> <PUBCHEM_CACTVS_TAUTO_COUNT>
-1

> <PUBCHEM_COORDINATE_TYPE>
1
5
255

> <PUBCHEM_BONDANNOTATIONS>
100  109  8
101  108  8
102  111  8
103  110  8
104  117  8
105  116  8
106  114  8
107  114  8
108  115  8
109  115  8
110  118  8
111  118  8
112  121  8
113  120  8
116  119  8
117  119  8
120  122  8
121  122  8
47  2  6
48  3  5
49  4  5
51  5  6
50  52  6
57  63  8
57  65  8
58  64  8
58  66  8
59  67  8
59  68  8
61  69  8
61  70  8
62  77  8
62  78  8
63  71  8
64  72  8
65  73  8
66  74  8
67  75  8
68  76  8
69  81  8
70  82  8
71  79  8
72  80  8
73  79  8
74  80  8
75  83  8
76  83  8
77  85  8
78  86  8
81  84  8
82  84  8
85  87  8
86  87  8
92  98  8
92  99  8
93  100  8
93  101  8
95  102  8
95  103  8
96  104  8
96  105  8
97  112  8
97  113  8
98  107  8
99  106  8

$$$$
8467
  -OEChem-02061913072D

 12 12  0     0  0  0  0  0  0999 V2000
    4.2690    1.2500    0.0000 O   0  0  0  0  0  0  0  0  0  0  0  0
    2.5369    0.2500    0.0000 O   0  0  0  0  0  0  0  0  0  0  0  0
    6.0010   -2.7500    0.0000 O   0  0  0  0  0  0  0  0  0  0  0  0
    4.2690    0.2500    0.0000 C   0  0  0  0  0  0  0  0  0  0  0  0
    5.1350   -0.2500    0.0000 C   0  0  0  0  0  0  0  0  0  0  0  0
    3.4030   -0.2500    0.0000 C   0  0  0  0  0  0  0  0  0  0  0  0
    5.1350   -1.2500    0.0000 C   0  0  0  0  0  0  0  0  0  0  0  0
    5.1350    1.7500    0.0000 C   0  0  0  0  0  0  0  0  0  0  0  0
    3.4030   -1.2500    0.0000 C   0  0  0  0  0  0  0  0  0  0  0  0
    4.2690   -1.7500    0.0000 C   0  0  0  0  0  0  0  0  0  0  0  0
    5.1350    2.7500    0.0000 C   0  0  0  0  0  0  0  0  0  0  0  0
    6.0010   -1.7500    0.0000 C   0  0  0  0  0  0  0  0  0  0  0  0
  1  4  1  0  0  0  0
  1  8  1  0  0  0  0
  2  6  1  0  0  0  0
  3 12  2  0  0  0  0
  4  5  1  0  0  0  0
  4  6  2  0  0  0  0
  5  7  2  0  0  0  0
  6  9  1  0  0  0  0
  7 10  1  0  0  0  0
  7 12  1  0  0  0  0
  8 11  1  0  0  0  0
  9 10  2  0  0  0  0
M  END
> <PUBCHEM_COMPOUND_CID>
8467

> <PUBCHEM_COMPOUND_CANONICALIZED>
1

> <PUBCHEM_CACTVS_COMPLEXITY>
147

> <PUBCHEM_CACTVS_HBOND_ACCEPTOR>
3

> <PUBCHEM_CACTVS_HBOND_DONOR>
1

> <PUBCHEM_CACTVS_ROTATABLE_BOND>
3

> <PUBCHEM_CACTVS_SUBSKEYS>
AAADccBwMAAAAAAAAAAAAAAAAAAAAAAAAAAwAAAAAAAAAAABAAAAGgAACAAADASgmAIyBoAABgCIAihSgAACCAAkIAAIiAEGiMgNJjKGNRqCeSOkwBELuYeKzBDOIAABAAAAQABAAAIAAACAAAAAAAAAAA==

> <PUBCHEM_IUPAC_OPENEYE_NAME>
3-ethoxy-4-hydroxy-benzaldehyde

> <PUBCHEM_IUPAC_CAS_NAME>
3-ethoxy-4-hydroxybenzaldehyde

> <PUBCHEM_IUPAC_NAME>
3-ethoxy-4-hydroxybenzaldehyde

> <PUBCHEM_IUPAC_SYSTEMATIC_NAME>
3-ethoxy-4-oxidanyl-benzaldehyde

> <PUBCHEM_IUPAC_TRADITIONAL_NAME>
3-ethoxy-4-hydroxy-benzaldehyde

> <PUBCHEM_IUPAC_INCHI>
InChI=1S/C9H10O3/c1-2-12-9-5-7(6-10)3-4-8(9)11/h3-6,11H,2H2,1H3

> <PUBCHEM_IUPAC_INCHIKEY>
CBOQJANXLMLOSS-UHFFFAOYSA-N

> <PUBCHEM_XLOGP3>
1.6

> <PUBCHEM_EXACT_MASS>
166.063

> <PUBCHEM_MOLECULAR_FORMULA>
C9H10O3

> <PUBCHEM_MOLECULAR_WEIGHT>
166.176

> <PUBCHEM_OPENEYE_CAN_SMILES>
CCOC1=C(C=CC(=C1)C=O)O

> <PUBCHEM_OPENEYE_ISO_SMILES>
CCOC1=C(C=CC(=C1)C=O)O

> <PUBCHEM_CACTVS_TPSA>
46.5

> <PUBCHEM_MONOISOTOPIC_WEIGHT>
166.063

> <PUBCHEM_TOTAL_CHARGE>
0

> <PUBCHEM_HEAVY_ATOM_COUNT>
12

> <PUBCHEM_ATOM_DEF_STEREO_COUNT>
0

> <PUBCHEM_ATOM_UDEF_STEREO_COUNT>
0

> <PUBCHEM_BOND_DEF_STEREO_COUNT>
0

> <PUBCHEM_BOND_UDEF_STEREO_COUNT>
0

> <PUBCHEM_ISOTOPIC_ATOM_COUNT>
0

> <PUBCHEM_COMPONENT_COUNT>
1

> <PUBCHEM_CACTVS_TAUTO_COUNT>
-1

> <PUBCHEM_COORDINATE_TYPE>
1
5
255

> <PUBCHEM_BONDANNOTATIONS>
4  5  8
4  6  8
5  7  8
6  9  8
7  10  8
9  10  8

$$$$
6989
  -OEChem-02061913072D

 11 11  0     0  0  0  0  0  0999 V2000
    2.5369    0.7500    0.0000 O   0  0  0  0  0  0  0  0  0  0  0  0
    4.2690    1.7500    0.0000 C   0  0  0  0  0  0  0  0  0  0  0  0
    4.2690    0.7500    0.0000 C   0  0  0  0  0  0  0  0  0  0  0  0
    5.1350    2.2500    0.0000 C   0  0  0  0  0  0  0  0  0  0  0  0
    3.4030    2.2500    0.0000 C   0  0  0  0  0  0  0  0  0  0  0  0
    3.4030    0.2500    0.0000 C   0  0  0  0  0  0  0  0  0  0  0  0
    5.1350    0.2500    0.0000 C   0  0  0  0  0  0  0  0  0  0  0  0
    4.2690   -1.2500    0.0000 C   0  0  0  0  0  0  0  0  0  0  0  0
    3.4030   -0.7500    0.0000 C   0  0  0  0  0  0  0  0  0  0  0  0
    5.1350   -0.7500    0.0000 C   0  0  0  0  0  0  0  0  0  0  0  0
    4.2690   -2.2500    0.0000 C   0  0  0  0  0  0  0  0  0  0  0  0
  1  6  1  0  0  0  0
  2  3  1  0  0  0  0
  2  4  1  0  0  0  0
  2  5  1  0  0  0  0
  3  6  2  0  0  0  0
  3  7  1  0  0  0  0
  6  9  1  0  0  0  0
  7 10  2  0  0  0  0
  8  9  2  0  0  0  0
  8 10  1  0  0  0  0
  8 11  1  0  0  0  0
M  END
> <PUBCHEM_COMPOUND_CID>
6989

> <PUBCHEM_COMPOUND_CANONICALIZED>
1

> <PUBCHEM_CACTVS_COMPLEXITY>
120

> <PUBCHEM_CACTVS_HBOND_ACCEPTOR>
1

> <PUBCHEM_CACTVS_HBOND_DONOR>
1

> <PUBCHEM_CACTVS_ROTATABLE_BOND>
1

> <PUBCHEM_CACTVS_SUBSKEYS>
AAADccBwIAAAAAAAAAAAAAAAAAAAAAAAAAAwAAAAAAAAAAABAAAAGgAACAAADQSAmAAyBoAAAgCAAiBCAAACAAAgIAAIiAAGCIgIJiKCERKAcAAkwBEImAeAwPAOwAABAAAIAACAAAIAABAAAAAAAAAAAA==

> <PUBCHEM_IUPAC_OPENEYE_NAME>
2-isopropyl-5-methyl-phenol

> <PUBCHEM_IUPAC_CAS_NAME>
5-methyl-2-propan-2-ylphenol

> <PUBCHEM_IUPAC_NAME>
5-methyl-2-propan-2-ylphenol

> <PUBCHEM_IUPAC_SYSTEMATIC_NAME>
5-methyl-2-propan-2-yl-phenol

> <PUBCHEM_IUPAC_TRADITIONAL_NAME>
thymol

> <PUBCHEM_IUPAC_INCHI>
InChI=1S/C10H14O/c1-7(2)9-5-4-8(3)6-10(9)11/h4-7,11H,1-3H3

> <PUBCHEM_IUPAC_INCHIKEY>
MGSRCZKZVOBKFT-UHFFFAOYSA-N

> <PUBCHEM_XLOGP3>
3.3

> <PUBCHEM_EXACT_MASS>
150.104

> <PUBCHEM_MOLECULAR_FORMULA>
C10H14O

> <PUBCHEM_MOLECULAR_WEIGHT>
150.221

> <PUBCHEM_OPENEYE_CAN_SMILES>
CC1=CC(=C(C=C1)C(C)C)O

> <PUBCHEM_OPENEYE_ISO_SMILES>
CC1=CC(=C(C=C1)C(C)C)O

> <PUBCHEM_CACTVS_TPSA>
20.2

> <PUBCHEM_MONOISOTOPIC_WEIGHT>
150.104

> <PUBCHEM_TOTAL_CHARGE>
0

> <PUBCHEM_HEAVY_ATOM_COUNT>
11

> <PUBCHEM_ATOM_DEF_STEREO_COUNT>
0

> <PUBCHEM_ATOM_UDEF_STEREO_COUNT>
0

> <PUBCHEM_BOND_DEF_STEREO_COUNT>
0

> <PUBCHEM_BOND_UDEF_STEREO_COUNT>
0

> <PUBCHEM_ISOTOPIC_ATOM_COUNT>
0

> <PUBCHEM_COMPONENT_COUNT>
1

> <PUBCHEM_CACTVS_TAUTO_COUNT>
-1

> <PUBCHEM_COORDINATE_TYPE>
1
5
255

> <PUBCHEM_BONDANNOTATIONS>
3  6  8
3  7  8
6  9  8
7  10  8
8  10  8
8  9  8

$$$$
5052
  -OEChem-02061913062D

 44 49  0     1  0  0  0  0  0999 V2000
   10.9540   -2.0697    0.0000 O   0  0  0  0  0  0  0  0  0  0  0  0
   12.3536   -0.5153    0.0000 O   0  0  0  0  0  0  0  0  0  0  0  0
    9.2094   -2.5737    0.0000 O   0  0  0  0  0  0  0  0  0  0  0  0
    7.9357   -1.3999    0.0000 O   0  0  0  0  0  0  0  0  0  0  0  0
   12.7071    1.1803    0.0000 O   0  0  0  0  0  0  0  0  0  0  0  0
    2.6726    1.9031    0.0000 O   0  0  0  0  0  0  0  0  0  0  0  0
   15.6031   -2.0776    0.0000 O   0  0  0  0  0  0  0  0  0  0  0  0
   16.3102    1.3136    0.0000 O   0  0  0  0  0  0  0  0  0  0  0  0
   16.9356   -0.5862    0.0000 O   0  0  0  0  0  0  0  0  0  0  0  0
    8.6152    2.1163    0.0000 N   0  0  3  0  0  0  0  0  0  0  0  0
    6.1621    0.9988    0.0000 N   0  0  0  0  0  0  0  0  0  0  0  0
    9.2698    0.1532    0.0000 C   0  0  3  0  0  0  0  0  0  0  0  0
    9.9668    0.9273    0.0000 C   0  0  3  0  0  0  0  0  0  0  0  0
    8.2526    0.3776    0.0000 C   0  0  0  0  0  0  0  0  0  0  0  0
    9.5891   -0.8837    0.0000 C   0  0  3  0  0  0  0  0  0  0  0  0
    7.9460    1.3731    0.0000 C   0  0  3  0  0  0  0  0  0  0  0  0
    9.6372    1.9154    0.0000 C   0  0  0  0  0  0  0  0  0  0  0  0
   11.0314    0.7181    0.0000 C   0  0  0  0  0  0  0  0  0  0  0  0
   10.6486   -1.1175    0.0000 C   0  0  3  0  0  0  0  0  0  0  0  0
   11.3746   -0.3112    0.0000 C   0  0  3  0  0  0  0  0  0  0  0  0
    6.9679    1.5810    0.0000 C   0  0  0  0  0  0  0  0  0  0  0  0
    8.3061    3.0673    0.0000 C   0  0  0  0  0  0  0  0  0  0  0  0
    6.6589    2.5321    0.0000 C   0  0  0  0  0  0  0  0  0  0  0  0
    7.3280    3.2752    0.0000 C   0  0  0  0  0  0  0  0  0  0  0  0
    8.9114   -1.6191    0.0000 C   0  0  0  0  0  0  0  0  0  0  0  0
    5.6648    2.5295    0.0000 C   0  0  0  0  0  0  0  0  0  0  0  0
    5.3584    1.5838    0.0000 C   0  0  0  0  0  0  0  0  0  0  0  0
   11.9313   -2.2814    0.0000 C   0  0  0  0  0  0  0  0  0  0  0  0
    4.9832    3.3090    0.0000 C   0  0  0  0  0  0  0  0  0  0  0  0
   13.0198    0.2304    0.0000 C   0  0  0  0  0  0  0  0  0  0  0  0
    4.3492    1.3521    0.0000 C   0  0  0  0  0  0  0  0  0  0  0  0
    3.9689    3.1007    0.0000 C   0  0  0  0  0  0  0  0  0  0  0  0
    3.6498    2.1156    0.0000 C   0  0  0  0  0  0  0  0  0  0  0  0
    8.5317   -3.3090    0.0000 C   0  0  0  0  0  0  0  0  0  0  0  0
   13.9988    0.0263    0.0000 C   0  0  0  0  0  0  0  0  0  0  0  0
   14.6650    0.7720    0.0000 C   0  0  0  0  0  0  0  0  0  0  0  0
   14.3114   -0.9236    0.0000 C   0  0  0  0  0  0  0  0  0  0  0  0
   15.2904   -1.1277    0.0000 C   0  0  0  0  0  0  0  0  0  0  0  0
   15.6440    0.5678    0.0000 C   0  0  0  0  0  0  0  0  0  0  0  0
    2.0000    2.6430    0.0000 C   0  0  0  0  0  0  0  0  0  0  0  0
   15.9566   -0.3820    0.0000 C   0  0  0  0  0  0  0  0  0  0  0  0
   14.9368   -2.8233    0.0000 C   0  0  0  0  0  0  0  0  0  0  0  0
   15.9975    2.2634    0.0000 C   0  0  0  0  0  0  0  0  0  0  0  0
   17.6018    0.1596    0.0000 C   0  0  0  0  0  0  0  0  0  0  0  0
  1 19  1  0  0  0  0
  1 28  1  0  0  0  0
  2 20  1  0  0  0  0
  2 30  1  0  0  0  0
  3 25  1  0  0  0  0
  3 34  1  0  0  0  0
  4 25  2  0  0  0  0
  5 30  2  0  0  0  0
  6 33  1  0  0  0  0
  6 40  1  0  0  0  0
  7 38  1  0  0  0  0
  7 42  1  0  0  0  0
  8 39  1  0  0  0  0
  8 43  1  0  0  0  0
  9 41  1  0  0  0  0
  9 44  1  0  0  0  0
 10 16  1  0  0  0  0
 10 17  1  0  0  0  0
 10 22  1  0  0  0  0
 11 21  1  0  0  0  0
 11 27  1  0  0  0  0
 12 13  1  0  0  0  0
 12 14  1  0  0  0  0
 12 15  1  0  0  0  0
 13 17  1  0  0  0  0
 13 18  1  0  0  0  0
 14 16  1  0  0  0  0
 15 19  1  0  0  0  0
 15 25  1  0  0  0  0
 16 21  1  0  0  0  0
 18 20  1  0  0  0  0
 19 20  1  0  0  0  0
 21 23  2  0  0  0  0
 22 24  1  0  0  0  0
 23 24  1  0  0  0  0
 23 26  1  0  0  0  0
 26 27  2  0  0  0  0
 26 29  1  0  0  0  0
 27 31  1  0  0  0  0
 29 32  2  0  0  0  0
 30 35  1  0  0  0  0
 31 33  2  0  0  0  0
 32 33  1  0  0  0  0
 35 36  2  0  0  0  0
 35 37  1  0  0  0  0
 36 39  1  0  0  0  0
 37 38  2  0  0  0  0
 38 41  1  0  0  0  0
 39 41  2  0  0  0  0
M  END
> <PUBCHEM_COMPOUND_CID>
5052

> <PUBCHEM_COMPOUND_CANONICALIZED>
1

> <PUBCHEM_CACTVS_COMPLEXITY>
1000

> <PUBCHEM_CACTVS_HBOND_ACCEPTOR>
10

> <PUBCHEM_CACTVS_HBOND_DONOR>
1

> <PUBCHEM_CACTVS_ROTATABLE_BOND>
10

> <PUBCHEM_CACTVS_SUBSKEYS>
AAADcfB/PAAAAAAAAAAAAAAAAAAAAWAAAAA8eMECAAAAAFix9AAAHgAQAAAADTzhngYyzvPJlACoAyTyTACCiCAlIiAImSE+7NgNZ/bEtZuWMSpn8B3K6Yf6/f/eoAABCgACQABAAAYUADSAAAAAAAAAAA==

> <PUBCHEM_IUPAC_OPENEYE_NAME>
methyl 6,18-dimethoxy-17-(3,4,5-trimethoxybenzoyl)oxy-1,3,11,12,14,15,16,17,18,19,20,21-dodecahydroyohimban-19-carboxylate

> <PUBCHEM_IUPAC_CAS_NAME>
6,18-dimethoxy-17-[oxo-(3,4,5-trimethoxyphenyl)methoxy]-1,3,11,12,14,15,16,17,18,19,20,21-dodecahydroyohimban-19-carboxylic acid methyl ester

> <PUBCHEM_IUPAC_NAME>
methyl 6,18-dimethoxy-17-(3,4,5-trimethoxybenzoyl)oxy-1,3,11,12,14,15,16,17,18,19,20,21-dodecahydroyohimban-19-carboxylate

> <PUBCHEM_IUPAC_SYSTEMATIC_NAME>
methyl 6,18-dimethoxy-17-(3,4,5-trimethoxyphenyl)carbonyloxy-1,3,11,12,14,15,16,17,18,19,20,21-dodecahydroyohimban-19-carboxylate

> <PUBCHEM_IUPAC_TRADITIONAL_NAME>
6,18-dimethoxy-17-(3,4,5-trimethoxybenzoyl)oxy-1,3,11,12,14,15,16,17,18,19,20,21-dodecahydroyohimban-19-carboxylic acid methyl ester

> <PUBCHEM_IUPAC_INCHI>
InChI=1S/C33H40N2O9/c1-38-19-7-8-20-21-9-10-35-16-18-13-27(44-32(36)17-11-25(39-2)30(41-4)26(12-17)40-3)31(42-5)28(33(37)43-6)22(18)15-24(35)29(21)34-23(20)14-19/h7-8,11-12,14,18,22,24,27-28,31,34H,9-10,13,15-16H2,1-6H3

> <PUBCHEM_IUPAC_INCHIKEY>
QEVHRUUCFGRFIF-UHFFFAOYSA-N

> <PUBCHEM_XLOGP3_AA>
4

> <PUBCHEM_EXACT_MASS>
608.273

> <PUBCHEM_MOLECULAR_FORMULA>
C33H40N2O9

> <PUBCHEM_MOLECULAR_WEIGHT>
608.688

> <PUBCHEM_OPENEYE_CAN_SMILES>
COC1C(CC2CN3CCC4=C(C3CC2C1C(=O)OC)NC5=C4C=CC(=C5)OC)OC(=O)C6=CC(=C(C(=C6)OC)OC)OC

> <PUBCHEM_OPENEYE_ISO_SMILES>
COC1C(CC2CN3CCC4=C(C3CC2C1C(=O)OC)NC5=C4C=CC(=C5)OC)OC(=O)C6=CC(=C(C(=C6)OC)OC)OC

> <PUBCHEM_CACTVS_TPSA>
118

> <PUBCHEM_MONOISOTOPIC_WEIGHT>
608.273

> <PUBCHEM_TOTAL_CHARGE>
0

> <PUBCHEM_HEAVY_ATOM_COUNT>
44

> <PUBCHEM_ATOM_DEF_STEREO_COUNT>
0

> <PUBCHEM_ATOM_UDEF_STEREO_COUNT>
6

> <PUBCHEM_BOND_DEF_STEREO_COUNT>
0

> <PUBCHEM_BOND_UDEF_STEREO_COUNT>
0

> <PUBCHEM_ISOTOPIC_ATOM_COUNT>
0

> <PUBCHEM_COMPONENT_COUNT>
1

> <PUBCHEM_CACTVS_TAUTO_COUNT>
-1

> <PUBCHEM_COORDINATE_TYPE>
1
5
255

> <PUBCHEM_BONDANNOTATIONS>
19  1  3
11  21  8
11  27  8
12  14  3
13  18  3
16  14  3
15  25  3
20  2  3
21  23  8
23  26  8
26  27  8
26  29  8
27  31  8
29  32  8
31  33  8
32  33  8
35  36  8
35  37  8
36  39  8
37  38  8
38  41  8
39  41  8

$$$$
7962
  -OEChem-02061913072D

  7  7  0     0  0  0  0  0  0999 V2000
    2.8660    0.5000    0.0000 C   0  0  0  0  0  0  0  0  0  0  0  0
    2.0000    0.0000    0.0000 C   0  0  0  0  0  0  0  0  0  0  0  0
    3.7320   -0.0000    0.0000 C   0  0  0  0  0  0  0  0  0  0  0  0
    2.0000   -1.0000    0.0000 C   0  0  0  0  0  0  0  0  0  0  0  0
    3.7320   -1.0000    0.0000 C   0  0  0  0  0  0  0  0  0  0  0  0
    2.8660   -1.5000    0.0000 C   0  0  0  0  0  0  0  0  0  0  0  0
    2.8660    1.5000    0.0000 C   0  0  0  0  0  0  0  0  0  0  0  0
  1  2  1  0  0  0  0
  1  3  1  0  0  0  0
  1  7  1  0  0  0  0
  2  4  1  0  0  0  0
  3  5  1  0  0  0  0
  4  6  1  0  0  0  0
  5  6  1  0  0  0  0
M  END
> <PUBCHEM_COMPOUND_CID>
7962

> <PUBCHEM_COMPOUND_CANONICALIZED>
1

> <PUBCHEM_CACTVS_COMPLEXITY>
42

> <PUBCHEM_CACTVS_HBOND_ACCEPTOR>
0

> <PUBCHEM_CACTVS_HBOND_DONOR>
0

> <PUBCHEM_CACTVS_ROTATABLE_BOND>
0

> <PUBCHEM_CACTVS_SUBSKEYS>
AAADccBgAAAAAAAAAAAAAAAAAAAAAAAAAAAwAAAAAAAAAAAAAAAAGAAAAAAADQCAAAACAAAAAAAAAAAAAAAAAAAAAAAAAAAAAAAAAAIAAAAAAAAAAAAAAAEAgAAOAAAAAAAAAAAAAAAAAAAAAAAAAAAAAA==

> <PUBCHEM_IUPAC_OPENEYE_NAME>
methylcyclohexane

> <PUBCHEM_IUPAC_CAS_NAME>
methylcyclohexane

> <PUBCHEM_IUPAC_NAME>
methylcyclohexane

> <PUBCHEM_IUPAC_SYSTEMATIC_NAME>
methylcyclohexane

> <PUBCHEM_IUPAC_TRADITIONAL_NAME>
methylcyclohexane

> <PUBCHEM_IUPAC_INCHI>
InChI=1S/C7H14/c1-7-5-3-2-4-6-7/h7H,2-6H2,1H3

> <PUBCHEM_IUPAC_INCHIKEY>
UAEPNZWRGJTJPN-UHFFFAOYSA-N

> <PUBCHEM_XLOGP3>
3.6

> <PUBCHEM_EXACT_MASS>
98.11

> <PUBCHEM_MOLECULAR_FORMULA>
C7H14

> <PUBCHEM_MOLECULAR_WEIGHT>
98.189

> <PUBCHEM_OPENEYE_CAN_SMILES>
CC1CCCCC1

> <PUBCHEM_OPENEYE_ISO_SMILES>
CC1CCCCC1

> <PUBCHEM_CACTVS_TPSA>
0

> <PUBCHEM_MONOISOTOPIC_WEIGHT>
98.11

> <PUBCHEM_TOTAL_CHARGE>
0

> <PUBCHEM_HEAVY_ATOM_COUNT>
7

> <PUBCHEM_ATOM_DEF_STEREO_COUNT>
0

> <PUBCHEM_ATOM_UDEF_STEREO_COUNT>
0

> <PUBCHEM_BOND_DEF_STEREO_COUNT>
0

> <PUBCHEM_BOND_UDEF_STEREO_COUNT>
0

> <PUBCHEM_ISOTOPIC_ATOM_COUNT>
0

> <PUBCHEM_COMPONENT_COUNT>
1

> <PUBCHEM_CACTVS_TAUTO_COUNT>
-1

> <PUBCHEM_COORDINATE_TYPE>
1
5
255

$$$$
7838
  -OEChem-02061913072D

  8  8  0     1  0  0  0  0  0999 V2000
    5.0981   -2.1830    0.0000 O   0  0  0  0  0  0  0  0  0  0  0  0
    3.7320    0.1830    0.0000 O   0  0  0  0  0  0  0  0  0  0  0  0
    4.5981   -1.3170    0.0000 C   0  0  3  0  0  0  0  0  0  0  0  0
    5.5981   -1.3170    0.0000 C   0  0  0  0  0  0  0  0  0  0  0  0
    3.7320   -0.8170    0.0000 C   0  0  0  0  0  0  0  0  0  0  0  0
    2.8660    0.6830    0.0000 C   0  0  0  0  0  0  0  0  0  0  0  0
    2.8660    1.6830    0.0000 C   0  0  0  0  0  0  0  0  0  0  0  0
    2.0000    2.1830    0.0000 C   0  0  0  0  0  0  0  0  0  0  0  0
  1  3  1  0  0  0  0
  1  4  1  0  0  0  0
  2  5  1  0  0  0  0
  2  6  1  0  0  0  0
  3  4  1  0  0  0  0
  3  5  1  0  0  0  0
  6  7  1  0  0  0  0
  7  8  2  0  0  0  0
M  END
> <PUBCHEM_COMPOUND_CID>
7838

> <PUBCHEM_COMPOUND_CANONICALIZED>
1

> <PUBCHEM_CACTVS_COMPLEXITY>
80.6

> <PUBCHEM_CACTVS_HBOND_ACCEPTOR>
2

> <PUBCHEM_CACTVS_HBOND_DONOR>
0

> <PUBCHEM_CACTVS_ROTATABLE_BOND>
4

> <PUBCHEM_CACTVS_SUBSKEYS>
AAADccBgMAAAAAAAAAAAAAAAEgAAAAAAAAAAAAAAAAAAAAAAAAAAGgAAAAAACBSggAIAAAAABACAACBCAAAAAAAAAAAIAAAAAAABBAAAIQACAAABAAACIAAAAAAAAAAAAAAAAAAAAAAAAAAAAAAAAAAAAA==

> <PUBCHEM_IUPAC_OPENEYE_NAME>
2-(allyloxymethyl)oxirane

> <PUBCHEM_IUPAC_CAS_NAME>
2-(prop-2-enoxymethyl)oxirane

> <PUBCHEM_IUPAC_NAME>
2-(prop-2-enoxymethyl)oxirane

> <PUBCHEM_IUPAC_SYSTEMATIC_NAME>
2-(prop-2-enoxymethyl)oxirane

> <PUBCHEM_IUPAC_TRADITIONAL_NAME>
2-(allyloxymethyl)oxirane

> <PUBCHEM_IUPAC_INCHI>
InChI=1S/C6H10O2/c1-2-3-7-4-6-5-8-6/h2,6H,1,3-5H2

> <PUBCHEM_IUPAC_INCHIKEY>
LSWYGACWGAICNM-UHFFFAOYSA-N

> <PUBCHEM_XLOGP3_AA>
0.4

> <PUBCHEM_EXACT_MASS>
114.068

> <PUBCHEM_MOLECULAR_FORMULA>
C6H10O2

> <PUBCHEM_MOLECULAR_WEIGHT>
114.144

> <PUBCHEM_OPENEYE_CAN_SMILES>
C=CCOCC1CO1

> <PUBCHEM_OPENEYE_ISO_SMILES>
C=CCOCC1CO1

> <PUBCHEM_CACTVS_TPSA>
21.8

> <PUBCHEM_MONOISOTOPIC_WEIGHT>
114.068

> <PUBCHEM_TOTAL_CHARGE>
0

> <PUBCHEM_HEAVY_ATOM_COUNT>
8

> <PUBCHEM_ATOM_DEF_STEREO_COUNT>
0

> <PUBCHEM_ATOM_UDEF_STEREO_COUNT>
1

> <PUBCHEM_BOND_DEF_STEREO_COUNT>
0

> <PUBCHEM_BOND_UDEF_STEREO_COUNT>
0

> <PUBCHEM_ISOTOPIC_ATOM_COUNT>
0

> <PUBCHEM_COMPONENT_COUNT>
1

> <PUBCHEM_CACTVS_TAUTO_COUNT>
-1

> <PUBCHEM_COORDINATE_TYPE>
1
5
255

> <PUBCHEM_BONDANNOTATIONS>
3  9  3

$$$$
24112890
  -OEChem-02061914062D

 29 31  0     1  0  0  0  0  0999 V2000
    5.4641   -4.8465    0.0000 O   0  0  0  0  0  0  0  0  0  0  0  0
    5.4641    1.1535    0.0000 C   0  0  2  0  0  0  0  0  0  0  0  0
    6.4103    1.4582    0.0000 C   0  0  2  0  0  0  0  0  0  0  0  0
    5.4641    0.1535    0.0000 C   0  0  3  0  0  0  0  0  0  0  0  0
    6.9939    0.6535    0.0000 C   0  0  0  0  0  0  0  0  0  0  0  0
    6.4103   -0.1512    0.0000 C   0  0  0  0  0  0  0  0  0  0  0  0
    4.5981    1.6535    0.0000 C   0  0  0  0  0  0  0  0  0  0  0  0
    6.7210    2.4087    0.0000 C   0  0  2  0  0  0  0  0  0  0  0  0
    4.5981   -0.3465    0.0000 C   0  0  0  0  0  0  0  0  0  0  0  0
    5.4641    2.1535    0.0000 C   0  0  0  0  0  0  0  0  0  0  0  0
    3.7320    1.1535    0.0000 C   0  0  0  0  0  0  0  0  0  0  0  0
    3.7320    0.1535    0.0000 C   0  0  0  0  0  0  0  0  0  0  0  0
    6.0531    3.1530    0.0000 C   0  0  0  0  0  0  0  0  0  0  0  0
    7.6995    2.6150    0.0000 C   0  0  0  0  0  0  0  0  0  0  0  0
    4.5981   -1.3465    0.0000 C   0  0  0  0  0  0  0  0  0  0  0  0
    8.0102    3.5655    0.0000 C   0  0  0  0  0  0  0  0  0  0  0  0
    3.7320   -1.8465    0.0000 C   0  0  0  0  0  0  0  0  0  0  0  0
    8.9887    3.7717    0.0000 C   0  0  1  0  0  0  0  0  0  0  0  0
    3.7320   -2.8465    0.0000 C   0  0  0  0  0  0  0  0  0  0  0  0
    9.2993    4.7222    0.0000 C   0  0  0  0  0  0  0  0  0  0  0  0
    4.5981   -3.3465    0.0000 C   0  0  0  0  0  0  0  0  0  0  0  0
    9.6565    3.0274    0.0000 C   0  0  0  0  0  0  0  0  0  0  0  0
    2.8660   -3.3465    0.0000 C   0  0  0  0  0  0  0  0  0  0  0  0
    4.5981   -4.3465    0.0000 C   0  0  2  0  0  0  0  0  0  0  0  0
    2.8660   -4.3465    0.0000 C   0  0  0  0  0  0  0  0  0  0  0  0
    3.7320   -4.8465    0.0000 C   0  0  0  0  0  0  0  0  0  0  0  0
   10.2778    4.9284    0.0000 C   0  0  0  0  0  0  0  0  0  0  0  0
    8.6315    5.4665    0.0000 C   0  0  0  0  0  0  0  0  0  0  0  0
    2.0000   -2.8465    0.0000 C   0  0  0  0  0  0  0  0  0  0  0  0
 24  1  1  1  0  0  0
  2  3  1  0  0  0  0
  2  4  1  0  0  0  0
  2  7  1  0  0  0  0
  2 10  1  1  0  0  0
  3  5  1  0  0  0  0
  3  8  1  0  0  0  0
  4  6  1  0  0  0  0
  4  9  1  0  0  0  0
  5  6  1  0  0  0  0
  7 11  1  0  0  0  0
  8 13  1  6  0  0  0
  8 14  1  0  0  0  0
  9 12  1  0  0  0  0
  9 15  2  3  0  0  0
 11 12  1  0  0  0  0
 14 16  2  3  0  0  0
 15 17  1  0  0  0  0
 16 18  1  0  0  0  0
 17 19  2  3  0  0  0
 18 20  1  0  0  0  0
 18 22  1  1  0  0  0
 19 21  1  0  0  0  0
 19 23  1  0  0  0  0
 20 27  1  0  0  0  0
 20 28  1  0  0  0  0
 21 24  1  0  0  0  0
 23 25  1  0  0  0  0
 23 29  2  0  0  0  0
 24 26  1  0  0  0  0
 25 26  1  0  0  0  0
M  END
> <PUBCHEM_COMPOUND_CID>
24112890

> <PUBCHEM_COMPOUND_CANONICALIZED>
1

> <PUBCHEM_CACTVS_COMPLEXITY>
678

> <PUBCHEM_CACTVS_HBOND_ACCEPTOR>
1

> <PUBCHEM_CACTVS_HBOND_DONOR>
1

> <PUBCHEM_CACTVS_ROTATABLE_BOND>
5

> <PUBCHEM_CACTVS_SUBSKEYS>
AAADcfB4IAAAAAAAAAAAAAAAAAAAAYAAAAAwYAAAAAAAAGAAAAAAGgAACAAADxSggAICAAAAAgCAAiBCAAAAAAAgAAAICAAAAAgIEAIAAQAAQAAEwAAIgAOAwMAPgAAAAAAAAAAAAAAAACAAAQAACAAAAA==

> <PUBCHEM_IUPAC_OPENEYE_NAME>
(1~{S})-3-[2-[(1~{R},7~{a}~{R})-7~{a}-methyl-1-[(1~{R},4~{R})-1,4,5-trimethylhex-2-enyl]-2,3,3~{a},5,6,7-hexahydro-1~{H}-inden-4-ylidene]ethylidene]-4-methylene-cyclohexanol

> <PUBCHEM_IUPAC_CAS_NAME>
(1~{S})-3-[2-[(1~{R},7~{a}~{R})-1-[(2~{R},5~{R})-5,6-dimethylhept-3-en-2-yl]-7~{a}-methyl-2,3,3~{a},5,6,7-hexahydro-1~{H}-inden-4-ylidene]ethylidene]-4-methylene-1-cyclohexanol

> <PUBCHEM_IUPAC_NAME>
(1~{S})-3-[2-[(1~{R},7~{a}~{R})-1-[(2~{R},5~{R})-5,6-dimethylhept-3-en-2-yl]-7~{a}-methyl-2,3,3~{a},5,6,7-hexahydro-1~{H}-inden-4-ylidene]ethylidene]-4-methylidenecyclohexan-1-ol

> <PUBCHEM_IUPAC_SYSTEMATIC_NAME>
(1~{S})-3-[2-[(1~{R},7~{a}~{R})-1-[(2~{R},5~{R})-5,6-dimethylhept-3-en-2-yl]-7~{a}-methyl-2,3,3~{a},5,6,7-hexahydro-1~{H}-inden-4-ylidene]ethylidene]-4-methylidene-cyclohexan-1-ol

> <PUBCHEM_IUPAC_TRADITIONAL_NAME>
(1~{S})-3-[2-[(1~{R},7~{a}~{R})-7~{a}-methyl-1-[(1~{R},4~{R})-1,4,5-trimethylhex-2-enyl]-2,3,3~{a},5,6,7-hexahydro-1~{H}-inden-4-ylidene]ethylidene]-4-methylene-cyclohexanol

> <PUBCHEM_IUPAC_INCHI>
InChI=1S/C28H44O/c1-19(2)20(3)9-10-22(5)26-15-16-27-23(8-7-17-28(26,27)6)12-13-24-18-25(29)14-11-21(24)4/h9-10,12-13,19-20,22,25-27,29H,4,7-8,11,14-18H2,1-3,5-6H3/t20-,22+,25-,26+,27?,28+/m0/s1

> <PUBCHEM_IUPAC_INCHIKEY>
MECHNRXZTMCUDQ-WQSWAFMISA-N

> <PUBCHEM_XLOGP3_AA>
7.4

> <PUBCHEM_EXACT_MASS>
396.339

> <PUBCHEM_MOLECULAR_FORMULA>
C28H44O

> <PUBCHEM_MOLECULAR_WEIGHT>
396.659

> <PUBCHEM_OPENEYE_CAN_SMILES>
CC(C)C(C)C=CC(C)C1CCC2C1(CCCC2=CC=C3CC(CCC3=C)O)C

> <PUBCHEM_OPENEYE_ISO_SMILES>
C[C@H](C=C[C@H](C)C(C)C)[C@H]1CCC2[C@@]1(CCCC2=CC=C3C[C@H](CCC3=C)O)C

> <PUBCHEM_CACTVS_TPSA>
20.2

> <PUBCHEM_MONOISOTOPIC_WEIGHT>
396.339

> <PUBCHEM_TOTAL_CHARGE>
0

> <PUBCHEM_HEAVY_ATOM_COUNT>
29

> <PUBCHEM_ATOM_DEF_STEREO_COUNT>
5

> <PUBCHEM_ATOM_UDEF_STEREO_COUNT>
1

> <PUBCHEM_BOND_DEF_STEREO_COUNT>
0

> <PUBCHEM_BOND_UDEF_STEREO_COUNT>
3

> <PUBCHEM_ISOTOPIC_ATOM_COUNT>
0

> <PUBCHEM_COMPONENT_COUNT>
1

> <PUBCHEM_CACTVS_TAUTO_COUNT>
-1

> <PUBCHEM_COORDINATE_TYPE>
1
5
255

> <PUBCHEM_BONDANNOTATIONS>
24  1  5
14  16  1
17  19  1
18  22  5
2  10  5
3  30  6
4  9  3
8  13  6
9  15  1

$$$$
1254
  -OEChem-02061913062D

 11 11  0     1  0  0  0  0  0999 V2000
    2.5369    0.7500    0.0000 O   0  0  0  0  0  0  0  0  0  0  0  0
    4.2690    0.7500    0.0000 C   0  0  3  0  0  0  0  0  0  0  0  0
    3.4030    0.2500    0.0000 C   0  0  3  0  0  0  0  0  0  0  0  0
    5.1350    0.2500    0.0000 C   0  0  0  0  0  0  0  0  0  0  0  0
    4.2690   -1.2500    0.0000 C   0  0  3  0  0  0  0  0  0  0  0  0
    3.4030   -0.7500    0.0000 C   0  0  0  0  0  0  0  0  0  0  0  0
    5.1350   -0.7500    0.0000 C   0  0  0  0  0  0  0  0  0  0  0  0
    4.2690    1.7500    0.0000 C   0  0  0  0  0  0  0  0  0  0  0  0
    4.2690   -2.2500    0.0000 C   0  0  0  0  0  0  0  0  0  0  0  0
    5.1350    2.2500    0.0000 C   0  0  0  0  0  0  0  0  0  0  0  0
    3.4030    2.2500    0.0000 C   0  0  0  0  0  0  0  0  0  0  0  0
  1  3  1  0  0  0  0
  2  3  1  0  0  0  0
  2  4  1  0  0  0  0
  2  8  1  0  0  0  0
  3  6  1  0  0  0  0
  4  7  1  0  0  0  0
  5  6  1  0  0  0  0
  5  7  1  0  0  0  0
  5  9  1  0  0  0  0
  8 10  1  0  0  0  0
  8 11  1  0  0  0  0
M  END
> <PUBCHEM_COMPOUND_CID>
1254

> <PUBCHEM_COMPOUND_CANONICALIZED>
1

> <PUBCHEM_CACTVS_COMPLEXITY>
120

> <PUBCHEM_CACTVS_HBOND_ACCEPTOR>
1

> <PUBCHEM_CACTVS_HBOND_DONOR>
1

> <PUBCHEM_CACTVS_ROTATABLE_BOND>
1

> <PUBCHEM_CACTVS_SUBSKEYS>
AAADceBwIAAAAAAAAAAAAAAAAAAAAAAAAAAwAAAAAAAAAAAAAAAAGgAACAAADRSggAICAAAAAgAAAAAAAAAAAAAAAAAAAAAAAAAAEAIAAAAAQAAEAAAAAAGAwPAOgAAAAAAAAACAAAIAABAAAAAAAAAAAA==

> <PUBCHEM_IUPAC_OPENEYE_NAME>
2-isopropyl-5-methyl-cyclohexanol

> <PUBCHEM_IUPAC_CAS_NAME>
5-methyl-2-propan-2-yl-1-cyclohexanol

> <PUBCHEM_IUPAC_NAME>
5-methyl-2-propan-2-ylcyclohexan-1-ol

> <PUBCHEM_IUPAC_SYSTEMATIC_NAME>
5-methyl-2-propan-2-yl-cyclohexan-1-ol

> <PUBCHEM_IUPAC_TRADITIONAL_NAME>
2-isopropyl-5-methyl-cyclohexanol

> <PUBCHEM_IUPAC_INCHI>
InChI=1S/C10H20O/c1-7(2)9-5-4-8(3)6-10(9)11/h7-11H,4-6H2,1-3H3

> <PUBCHEM_IUPAC_INCHIKEY>
NOOLISFMXDJSKH-UHFFFAOYSA-N

> <PUBCHEM_XLOGP3_AA>
3

> <PUBCHEM_EXACT_MASS>
156.151

> <PUBCHEM_MOLECULAR_FORMULA>
C10H20O

> <PUBCHEM_MOLECULAR_WEIGHT>
156.269

> <PUBCHEM_OPENEYE_CAN_SMILES>
CC1CCC(C(C1)O)C(C)C

> <PUBCHEM_OPENEYE_ISO_SMILES>
CC1CCC(C(C1)O)C(C)C

> <PUBCHEM_CACTVS_TPSA>
20.2

> <PUBCHEM_MONOISOTOPIC_WEIGHT>
156.151

> <PUBCHEM_TOTAL_CHARGE>
0

> <PUBCHEM_HEAVY_ATOM_COUNT>
11

> <PUBCHEM_ATOM_DEF_STEREO_COUNT>
0

> <PUBCHEM_ATOM_UDEF_STEREO_COUNT>
3

> <PUBCHEM_BOND_DEF_STEREO_COUNT>
0

> <PUBCHEM_BOND_UDEF_STEREO_COUNT>
0

> <PUBCHEM_ISOTOPIC_ATOM_COUNT>
0

> <PUBCHEM_COMPONENT_COUNT>
1

> <PUBCHEM_CACTVS_TAUTO_COUNT>
-1

> <PUBCHEM_COORDINATE_TYPE>
1
5
255

> <PUBCHEM_BONDANNOTATIONS>
3  1  3
2  8  3
5  9  3

$$$$
9265
  -OEChem-02061913072D

  7  7  0     0  0  0  0  0  0999 V2000
    4.1906   -0.0000    0.0000 C   0  0  0  0  0  0  0  0  0  0  0  0
    3.7568   -0.9010    0.0000 C   0  0  0  0  0  0  0  0  0  0  0  0
    2.7818   -1.1235    0.0000 C   0  0  0  0  0  0  0  0  0  0  0  0
    2.0000   -0.5000    0.0000 C   0  0  0  0  0  0  0  0  0  0  0  0
    2.0000    0.5000    0.0000 C   0  0  0  0  0  0  0  0  0  0  0  0
    2.7818    1.1235    0.0000 C   0  0  0  0  0  0  0  0  0  0  0  0
    3.7568    0.9010    0.0000 C   0  0  0  0  0  0  0  0  0  0  0  0
  1  2  1  0  0  0  0
  1  7  1  0  0  0  0
  2  3  1  0  0  0  0
  3  4  1  0  0  0  0
  4  5  1  0  0  0  0
  5  6  1  0  0  0  0
  6  7  1  0  0  0  0
M  END
> <PUBCHEM_COMPOUND_CID>
9265

> <PUBCHEM_COMPOUND_CANONICALIZED>
1

> <PUBCHEM_CACTVS_COMPLEXITY>
19.7

> <PUBCHEM_CACTVS_HBOND_ACCEPTOR>
0

> <PUBCHEM_CACTVS_HBOND_DONOR>
0

> <PUBCHEM_CACTVS_ROTATABLE_BOND>
0

> <PUBCHEM_CACTVS_SUBSKEYS>
AAADccBgAAAAAAAAAAAAAAAAAAAAAAAAAAAAAAAABgAAAAAAAAAAGAAAAAAACACAAAAAAAAAAAAAAAAAAAAAAAAAAAAAAAAAAAAAAAIAAAAAAAAAAAAAAAEAgAAAAAAAAAAAAAAAAAAAAAAAAAAAAAAAAA==

> <PUBCHEM_IUPAC_OPENEYE_NAME>
cycloheptane

> <PUBCHEM_IUPAC_CAS_NAME>
cycloheptane

> <PUBCHEM_IUPAC_NAME>
cycloheptane

> <PUBCHEM_IUPAC_SYSTEMATIC_NAME>
cycloheptane

> <PUBCHEM_IUPAC_TRADITIONAL_NAME>
cycloheptane

> <PUBCHEM_IUPAC_INCHI>
InChI=1S/C7H14/c1-2-4-6-7-5-3-1/h1-7H2

> <PUBCHEM_IUPAC_INCHIKEY>
DMEGYFMYUHOHGS-UHFFFAOYSA-N

> <PUBCHEM_XLOGP3>
4

> <PUBCHEM_EXACT_MASS>
98.11

> <PUBCHEM_MOLECULAR_FORMULA>
C7H14

> <PUBCHEM_MOLECULAR_WEIGHT>
98.189

> <PUBCHEM_OPENEYE_CAN_SMILES>
C1CCCCCC1

> <PUBCHEM_OPENEYE_ISO_SMILES>
C1CCCCCC1

> <PUBCHEM_CACTVS_TPSA>
0

> <PUBCHEM_MONOISOTOPIC_WEIGHT>
98.11

> <PUBCHEM_TOTAL_CHARGE>
0

> <PUBCHEM_HEAVY_ATOM_COUNT>
7

> <PUBCHEM_ATOM_DEF_STEREO_COUNT>
0

> <PUBCHEM_ATOM_UDEF_STEREO_COUNT>
0

> <PUBCHEM_BOND_DEF_STEREO_COUNT>
0

> <PUBCHEM_BOND_UDEF_STEREO_COUNT>
0

> <PUBCHEM_ISOTOPIC_ATOM_COUNT>
0

> <PUBCHEM_COMPONENT_COUNT>
1

> <PUBCHEM_CACTVS_TAUTO_COUNT>
-1

> <PUBCHEM_COORDINATE_TYPE>
1
5
255

$$$$
667449
  -OEChem-02061913102D

 24 27  0     1  0  0  0  0  0999 V2000
    5.5320    0.2350    0.0000 O   0  0  0  0  0  0  0  0  0  0  0  0
    2.8680   -1.2408    0.0000 O   0  0  0  0  0  0  0  0  0  0  0  0
    7.9557    1.4507    0.0000 N   0  0  3  0  0  0  0  0  0  0  0  0
    6.3981   -3.2650    0.0000 N   0  0  0  0  0  0  0  0  0  0  0  0
    8.8217    1.9507    0.0000 C   0  0  1  0  0  0  0  0  0  0  0  0
    7.2641    0.2350    0.0000 C   0  0  2  0  0  0  0  0  0  0  0  0
    8.2300   -0.0238    0.0000 C   0  0  0  0  0  0  0  0  0  0  0  0
   10.2110    1.3986    0.0000 C   0  0  1  0  0  0  0  0  0  0  0  0
    8.1923    3.2997    0.0000 C   0  0  0  0  0  0  0  0  0  0  0  0
    9.7884    0.4923    0.0000 C   0  0  0  0  0  0  0  0  0  0  0  0
    7.3263    2.7997    0.0000 C   0  0  0  0  0  0  0  0  0  0  0  0
    6.3981   -0.2650    0.0000 C   0  0  1  0  0  0  0  0  0  0  0  0
   11.1507    1.7407    0.0000 C   0  0  0  0  0  0  0  0  0  0  0  0
    6.3981   -1.2650    0.0000 C   0  0  0  0  0  0  0  0  0  0  0  0
   11.9167    1.0979    0.0000 C   0  0  0  0  0  0  0  0  0  0  0  0
    5.5320   -1.7650    0.0000 C   0  0  0  0  0  0  0  0  0  0  0  0
    7.2641   -1.7650    0.0000 C   0  0  0  0  0  0  0  0  0  0  0  0
    5.5320   -2.7650    0.0000 C   0  0  0  0  0  0  0  0  0  0  0  0
    4.6381   -1.2303    0.0000 C   0  0  0  0  0  0  0  0  0  0  0  0
    7.2641   -2.7650    0.0000 C   0  0  0  0  0  0  0  0  0  0  0  0
    4.6381   -3.2997    0.0000 C   0  0  0  0  0  0  0  0  0  0  0  0
    3.7320   -1.7442    0.0000 C   0  0  0  0  0  0  0  0  0  0  0  0
    3.7320   -2.7858    0.0000 C   0  0  0  0  0  0  0  0  0  0  0  0
    2.0000   -1.7375    0.0000 C   0  0  0  0  0  0  0  0  0  0  0  0
 12  1  1  1  0  0  0
  2 22  1  0  0  0  0
  2 24  1  0  0  0  0
  3  6  1  0  0  0  0
  3 10  1  0  0  0  0
  3 11  1  0  0  0  0
  4 18  2  0  0  0  0
  4 20  1  0  0  0  0
  5  7  1  0  0  0  0
  5  8  1  0  0  0  0
  5  9  1  0  0  0  0
  6  7  1  0  0  0  0
  6 12  1  0  0  0  0
  8 10  1  0  0  0  0
  8 13  1  6  0  0  0
  9 11  1  0  0  0  0
 12 14  1  0  0  0  0
 13 15  2  0  0  0  0
 14 16  2  0  0  0  0
 14 17  1  0  0  0  0
 16 18  1  0  0  0  0
 16 19  1  0  0  0  0
 17 20  2  0  0  0  0
 18 21  1  0  0  0  0
 19 22  2  0  0  0  0
 21 23  2  0  0  0  0
 22 23  1  0  0  0  0
M  END
> <PUBCHEM_COMPOUND_CID>
667449

> <PUBCHEM_COMPOUND_CANONICALIZED>
1

> <PUBCHEM_CACTVS_COMPLEXITY>
457

> <PUBCHEM_CACTVS_HBOND_ACCEPTOR>
4

> <PUBCHEM_CACTVS_HBOND_DONOR>
1

> <PUBCHEM_CACTVS_ROTATABLE_BOND>
4

> <PUBCHEM_CACTVS_SUBSKEYS>
AAADceB7MAAAAAAAAAAAAAAAAAAAAAAAAAA8WLFiAAAAAACx8AAAHgAACAAADTzhngY+xvMIFgCgAzRnRACCiCAxIiAI2CA+bJgONuLEsZuEcChkwBHY+Aew4PwOgEABAAACAAAAgAIAAAQAAAAAAAAAAA==

> <PUBCHEM_IUPAC_OPENEYE_NAME>
(~{R})-(6-methoxy-4-quinolyl)-[(2~{R},4~{S},5~{S})-5-vinylquinuclidin-2-yl]methanol

> <PUBCHEM_IUPAC_CAS_NAME>
(~{R})-[(2~{R},4~{S},5~{S})-5-ethenyl-1-azabicyclo[2.2.2]octan-2-yl]-(6-methoxy-4-quinolinyl)methanol

> <PUBCHEM_IUPAC_NAME>
(~{R})-[(2~{R},4~{S},5~{S})-5-ethenyl-1-azabicyclo[2.2.2]octan-2-yl]-(6-methoxyquinolin-4-yl)methanol

> <PUBCHEM_IUPAC_SYSTEMATIC_NAME>
(~{R})-[(2~{R},4~{S},5~{S})-5-ethenyl-1-azabicyclo[2.2.2]octan-2-yl]-(6-methoxyquinolin-4-yl)methanol

> <PUBCHEM_IUPAC_TRADITIONAL_NAME>
(~{R})-(6-methoxy-4-quinolyl)-[(2~{R},4~{S},5~{S})-5-vinylquinuclidin-2-yl]methanol

> <PUBCHEM_IUPAC_INCHI>
InChI=1S/C20H24N2O2/c1-3-13-12-22-9-7-14(13)10-19(22)20(23)16-6-8-21-18-5-4-15(24-2)11-17(16)18/h3-6,8,11,13-14,19-20,23H,1,7,9-10,12H2,2H3/t13-,14+,19-,20-/m1/s1

> <PUBCHEM_IUPAC_INCHIKEY>
LOUPRKONTZGTKE-RYMBOPBQSA-N

> <PUBCHEM_XLOGP3>
2.9

> <PUBCHEM_EXACT_MASS>
324.184

> <PUBCHEM_MOLECULAR_FORMULA>
C20H24N2O2

> <PUBCHEM_MOLECULAR_WEIGHT>
324.424

> <PUBCHEM_OPENEYE_CAN_SMILES>
COC1=CC2=C(C=CN=C2C=C1)C(C3CC4CCN3CC4C=C)O

> <PUBCHEM_OPENEYE_ISO_SMILES>
COC1=CC2=C(C=CN=C2C=C1)[C@H]([C@H]3C[C@@H]4CCN3C[C@H]4C=C)O

> <PUBCHEM_CACTVS_TPSA>
45.6

> <PUBCHEM_MONOISOTOPIC_WEIGHT>
324.184

> <PUBCHEM_TOTAL_CHARGE>
0

> <PUBCHEM_HEAVY_ATOM_COUNT>
24

> <PUBCHEM_ATOM_DEF_STEREO_COUNT>
4

> <PUBCHEM_ATOM_UDEF_STEREO_COUNT>
0

> <PUBCHEM_BOND_DEF_STEREO_COUNT>
0

> <PUBCHEM_BOND_UDEF_STEREO_COUNT>
0

> <PUBCHEM_ISOTOPIC_ATOM_COUNT>
0

> <PUBCHEM_COMPONENT_COUNT>
1

> <PUBCHEM_CACTVS_TAUTO_COUNT>
-1

> <PUBCHEM_COORDINATE_TYPE>
1
5
255

> <PUBCHEM_BONDANNOTATIONS>
12  1  5
14  16  8
14  17  8
16  18  8
16  19  8
17  20  8
18  21  8
19  22  8
21  23  8
22  23  8
4  18  8
4  20  8
5  25  5
6  26  5
8  13  6

$$$$
5385558
  -OEChem-02061913342D

 14 15  0     0  0  0  0  0  0999 V2000
    7.2764    0.4947    0.0000 O   0  0  0  0  0  0  0  0  0  0  0  0
    7.2764   -1.1147    0.0000 O   0  0  0  0  0  0  0  0  0  0  0  0
    3.7320   -1.3100    0.0000 O   0  0  0  0  0  0  0  0  0  0  0  0
    6.3301    0.1900    0.0000 C   0  0  0  0  0  0  0  0  0  0  0  0
    6.3301   -0.8100    0.0000 C   0  0  0  0  0  0  0  0  0  0  0  0
    4.5981    0.1900    0.0000 C   0  0  0  0  0  0  0  0  0  0  0  0
    5.4641    0.6900    0.0000 C   0  0  0  0  0  0  0  0  0  0  0  0
    5.4641   -1.3100    0.0000 C   0  0  0  0  0  0  0  0  0  0  0  0
    4.5981   -0.8100    0.0000 C   0  0  0  0  0  0  0  0  0  0  0  0
    7.8600   -0.3100    0.0000 C   0  0  0  0  0  0  0  0  0  0  0  0
    3.7320    0.6900    0.0000 C   0  0  0  0  0  0  0  0  0  0  0  0
    2.8660    0.1900    0.0000 C   0  0  0  0  0  0  0  0  0  0  0  0
    2.8660   -0.8100    0.0000 C   0  0  0  0  0  0  0  0  0  0  0  0
    2.0000   -1.3100    0.0000 C   0  0  0  0  0  0  0  0  0  0  0  0
  1  4  1  0  0  0  0
  1 10  1  0  0  0  0
  2  5  1  0  0  0  0
  2 10  1  0  0  0  0
  3 13  2  0  0  0  0
  4  5  2  0  0  0  0
  4  7  1  0  0  0  0
  5  8  1  0  0  0  0
  6  7  2  0  0  0  0
  6  9  1  0  0  0  0
  6 11  1  0  0  0  0
  8  9  2  0  0  0  0
 11 12  2  0  0  0  0
 12 13  1  0  0  0  0
 13 14  1  0  0  0  0
M  END
> <PUBCHEM_COMPOUND_CID>
5385558

> <PUBCHEM_COMPOUND_CANONICALIZED>
1

> <PUBCHEM_CACTVS_COMPLEXITY>
247

> <PUBCHEM_CACTVS_HBOND_ACCEPTOR>
3

> <PUBCHEM_CACTVS_HBOND_DONOR>
0

> <PUBCHEM_CACTVS_ROTATABLE_BOND>
2

> <PUBCHEM_CACTVS_SUBSKEYS>
AAADccBwMAAAAAAAAAAAAAAAAAAAASAAAAAwAAAAAAAAAEgBAAAAGgAAAAAADASAmAMyDoAABACIAqBSAAACCAAgIAAIiAAGiMgdJiKEMRqgMCIkwBEOqYeAwBAOIAABAAAAQABAAAIAAACAAAAAAAAAAA==

> <PUBCHEM_IUPAC_OPENEYE_NAME>
(~{Z})-4-(1,3-benzodioxol-5-yl)but-3-en-2-one

> <PUBCHEM_IUPAC_CAS_NAME>
(~{Z})-4-(1,3-benzodioxol-5-yl)-3-buten-2-one

> <PUBCHEM_IUPAC_NAME>
(~{Z})-4-(1,3-benzodioxol-5-yl)but-3-en-2-one

> <PUBCHEM_IUPAC_SYSTEMATIC_NAME>
(~{Z})-4-(1,3-benzodioxol-5-yl)but-3-en-2-one

> <PUBCHEM_IUPAC_TRADITIONAL_NAME>
(~{Z})-4-(1,3-benzodioxol-5-yl)but-3-en-2-one

> <PUBCHEM_IUPAC_INCHI>
InChI=1S/C11H10O3/c1-8(12)2-3-9-4-5-10-11(6-9)14-7-13-10/h2-6H,7H2,1H3/b3-2-

> <PUBCHEM_IUPAC_INCHIKEY>
XIYPXOFSURQTTJ-IHWYPQMZSA-N

> <PUBCHEM_XLOGP3>
2.2

> <PUBCHEM_EXACT_MASS>
190.063

> <PUBCHEM_MOLECULAR_FORMULA>
C11H10O3

> <PUBCHEM_MOLECULAR_WEIGHT>
190.198

> <PUBCHEM_OPENEYE_CAN_SMILES>
CC(=O)C=CC1=CC2=C(C=C1)OCO2

> <PUBCHEM_OPENEYE_ISO_SMILES>
CC(=O)/C=C\C1=CC2=C(C=C1)OCO2

> <PUBCHEM_CACTVS_TPSA>
35.5

> <PUBCHEM_MONOISOTOPIC_WEIGHT>
190.063

> <PUBCHEM_TOTAL_CHARGE>
0

> <PUBCHEM_HEAVY_ATOM_COUNT>
14

> <PUBCHEM_ATOM_DEF_STEREO_COUNT>
0

> <PUBCHEM_ATOM_UDEF_STEREO_COUNT>
0

> <PUBCHEM_BOND_DEF_STEREO_COUNT>
1

> <PUBCHEM_BOND_UDEF_STEREO_COUNT>
0

> <PUBCHEM_ISOTOPIC_ATOM_COUNT>
0

> <PUBCHEM_COMPONENT_COUNT>
1

> <PUBCHEM_CACTVS_TAUTO_COUNT>
-1

> <PUBCHEM_COORDINATE_TYPE>
1
5
255

> <PUBCHEM_BONDANNOTATIONS>
4  5  8
4  7  8
5  8  8
6  7  8
6  9  8
8  9  8

$$$$
27756
  -OEChem-02061913052D

  9 10  0     1  0  0  0  0  0999 V2000
    5.0503    0.7844    0.0000 C   0  0  3  0  0  0  0  0  0  0  0  0
    4.7915   -0.1815    0.0000 C   0  0  3  0  0  0  0  0  0  0  0  0
    4.3137    1.7670    0.0000 C   0  0  0  0  0  0  0  0  0  0  0  0
    3.0768    0.1661    0.0000 C   0  0  0  0  0  0  0  0  0  0  0  0
    3.4188   -0.7735    0.0000 C   0  0  0  0  0  0  0  0  0  0  0  0
    6.4493    0.2756    0.0000 C   0  0  0  0  0  0  0  0  0  0  0  0
    6.1905   -0.6903    0.0000 C   0  0  0  0  0  0  0  0  0  0  0  0
    2.9962   -1.6799    0.0000 C   0  0  0  0  0  0  0  0  0  0  0  0
    2.0000   -1.7670    0.0000 C   0  0  0  0  0  0  0  0  0  0  0  0
  1  3  1  0  0  0  0
  1  4  1  0  0  0  0
  1  6  1  0  0  0  0
  2  3  1  0  0  0  0
  2  5  1  0  0  0  0
  2  7  1  0  0  0  0
  4  5  1  0  0  0  0
  5  8  2  3  0  0  0
  6  7  2  0  0  0  0
  8  9  1  0  0  0  0
M  END
> <PUBCHEM_COMPOUND_CID>
27756

> <PUBCHEM_COMPOUND_CANONICALIZED>
1

> <PUBCHEM_CACTVS_COMPLEXITY>
175

> <PUBCHEM_CACTVS_HBOND_ACCEPTOR>
0

> <PUBCHEM_CACTVS_HBOND_DONOR>
0

> <PUBCHEM_CACTVS_ROTATABLE_BOND>
0

> <PUBCHEM_CACTVS_SUBSKEYS>
AAADccBwAAAAAAAAAAAAAAAAAAAAAYIAAAAgAAAAAAAAAAAAAAAAGAAAAAAADQCAAAACAAAAAACAAiBCAAAAAAAgAAAICAAAAAgAAAIAAQAAAAAAgAAIAAMAAAAOAAAAAAAAAAAAAAAAAAAAAQAAAAAAAA==

> <PUBCHEM_IUPAC_OPENEYE_NAME>
5-ethylidenebicyclo[2.2.1]hept-2-ene

> <PUBCHEM_IUPAC_CAS_NAME>
5-ethylidenebicyclo[2.2.1]hept-2-ene

> <PUBCHEM_IUPAC_NAME>
5-ethylidenebicyclo[2.2.1]hept-2-ene

> <PUBCHEM_IUPAC_SYSTEMATIC_NAME>
5-ethylidenebicyclo[2.2.1]hept-2-ene

> <PUBCHEM_IUPAC_TRADITIONAL_NAME>
5-ethylidenebicyclo[2.2.1]hept-2-ene

> <PUBCHEM_IUPAC_INCHI>
InChI=1S/C9H12/c1-2-8-5-7-3-4-9(8)6-7/h2-4,7,9H,5-6H2,1H3

> <PUBCHEM_IUPAC_INCHIKEY>
OJOWICOBYCXEKR-UHFFFAOYSA-N

> <PUBCHEM_XLOGP3_AA>
2.2

> <PUBCHEM_EXACT_MASS>
120.094

> <PUBCHEM_MOLECULAR_FORMULA>
C9H12

> <PUBCHEM_MOLECULAR_WEIGHT>
120.195

> <PUBCHEM_OPENEYE_CAN_SMILES>
CC=C1CC2CC1C=C2

> <PUBCHEM_OPENEYE_ISO_SMILES>
CC=C1CC2CC1C=C2

> <PUBCHEM_CACTVS_TPSA>
0

> <PUBCHEM_MONOISOTOPIC_WEIGHT>
120.094

> <PUBCHEM_TOTAL_CHARGE>
0

> <PUBCHEM_HEAVY_ATOM_COUNT>
9

> <PUBCHEM_ATOM_DEF_STEREO_COUNT>
0

> <PUBCHEM_ATOM_UDEF_STEREO_COUNT>
2

> <PUBCHEM_BOND_DEF_STEREO_COUNT>
0

> <PUBCHEM_BOND_UDEF_STEREO_COUNT>
1

> <PUBCHEM_ISOTOPIC_ATOM_COUNT>
0

> <PUBCHEM_COMPONENT_COUNT>
1

> <PUBCHEM_CACTVS_TAUTO_COUNT>
-1

> <PUBCHEM_COORDINATE_TYPE>
1
5
255

> <PUBCHEM_BONDANNOTATIONS>
1  4  3
2  5  3
5  8  1

$$$$
7095
  -OEChem-02061913072D

 12 13  0     0  0  0  0  0  0999 V2000
    2.8660   -0.5000    0.0000 C   0  0  0  0  0  0  0  0  0  0  0  0
    2.8660    0.5000    0.0000 C   0  0  0  0  0  0  0  0  0  0  0  0
    3.7320    1.0000    0.0000 C   0  0  0  0  0  0  0  0  0  0  0  0
    2.0000   -1.0000    0.0000 C   0  0  0  0  0  0  0  0  0  0  0  0
    2.0000    1.0000    0.0000 C   0  0  0  0  0  0  0  0  0  0  0  0
    3.7320   -1.0000    0.0000 C   0  0  0  0  0  0  0  0  0  0  0  0
    3.7320    2.0000    0.0000 C   0  0  0  0  0  0  0  0  0  0  0  0
    2.0000   -2.0000    0.0000 C   0  0  0  0  0  0  0  0  0  0  0  0
    2.0000    2.0000    0.0000 C   0  0  0  0  0  0  0  0  0  0  0  0
    3.7320   -2.0000    0.0000 C   0  0  0  0  0  0  0  0  0  0  0  0
    2.8660   -2.5000    0.0000 C   0  0  0  0  0  0  0  0  0  0  0  0
    2.8660    2.5000    0.0000 C   0  0  0  0  0  0  0  0  0  0  0  0
  1  2  1  0  0  0  0
  1  4  2  0  0  0  0
  1  6  1  0  0  0  0
  2  3  2  0  0  0  0
  2  5  1  0  0  0  0
  3  7  1  0  0  0  0
  4  8  1  0  0  0  0
  5  9  2  0  0  0  0
  6 10  2  0  0  0  0
  7 12  2  0  0  0  0
  8 11  2  0  0  0  0
  9 12  1  0  0  0  0
 10 11  1  0  0  0  0
M  END
> <PUBCHEM_COMPOUND_CID>
7095

> <PUBCHEM_COMPOUND_CANONICALIZED>
1

> <PUBCHEM_CACTVS_COMPLEXITY>
100

> <PUBCHEM_CACTVS_HBOND_ACCEPTOR>
0

> <PUBCHEM_CACTVS_HBOND_DONOR>
0

> <PUBCHEM_CACTVS_ROTATABLE_BOND>
1

> <PUBCHEM_CACTVS_SUBSKEYS>
AAADccBwAAAAAAAAAAAAAAAAAAAAAAAAAAAwYAAAAAAAAAABQAAAGAAAAAAADACAGAAwAIAAAACAAiBCAAACAAAgAAAIiAAAAIgIICKAERCAIAAggAAIiAcAgMAOgAAAAAAAAAAAAAAAAAAAAAAAAAAAAA==

> <PUBCHEM_IUPAC_OPENEYE_NAME>
biphenyl

> <PUBCHEM_IUPAC_CAS_NAME>
1,1'-biphenyl

> <PUBCHEM_IUPAC_NAME>
1,1'-biphenyl

> <PUBCHEM_IUPAC_SYSTEMATIC_NAME>
1,1'-biphenyl

> <PUBCHEM_IUPAC_TRADITIONAL_NAME>
biphenyl

> <PUBCHEM_IUPAC_INCHI>
InChI=1S/C12H10/c1-3-7-11(8-4-1)12-9-5-2-6-10-12/h1-10H

> <PUBCHEM_IUPAC_INCHIKEY>
ZUOUZKKEUPVFJK-UHFFFAOYSA-N

> <PUBCHEM_XLOGP3>
4

> <PUBCHEM_EXACT_MASS>
154.078

> <PUBCHEM_MOLECULAR_FORMULA>
C12H10

> <PUBCHEM_MOLECULAR_WEIGHT>
154.212

> <PUBCHEM_OPENEYE_CAN_SMILES>
C1=CC=C(C=C1)C2=CC=CC=C2

> <PUBCHEM_OPENEYE_ISO_SMILES>
C1=CC=C(C=C1)C2=CC=CC=C2

> <PUBCHEM_CACTVS_TPSA>
0

> <PUBCHEM_MONOISOTOPIC_WEIGHT>
154.078

> <PUBCHEM_TOTAL_CHARGE>
0

> <PUBCHEM_HEAVY_ATOM_COUNT>
12

> <PUBCHEM_ATOM_DEF_STEREO_COUNT>
0

> <PUBCHEM_ATOM_UDEF_STEREO_COUNT>
0

> <PUBCHEM_BOND_DEF_STEREO_COUNT>
0

> <PUBCHEM_BOND_UDEF_STEREO_COUNT>
0

> <PUBCHEM_ISOTOPIC_ATOM_COUNT>
0

> <PUBCHEM_COMPONENT_COUNT>
1

> <PUBCHEM_CACTVS_TAUTO_COUNT>
-1

> <PUBCHEM_COORDINATE_TYPE>
1
5
255

> <PUBCHEM_BONDANNOTATIONS>
1  4  8
1  6  8
10  11  8
2  3  8
2  5  8
3  7  8
4  8  8
5  9  8
6  10  8
7  12  8
8  11  8
9  12  8

$$$$
4944
  -OEChem-02061913062D

 15 15  0     0  0  0  0  0  0999 V2000
    3.7320   -0.5000    0.0000 O   0  0  0  0  0  0  0  0  0  0  0  0
    5.4641    0.5000    0.0000 O   0  0  0  0  0  0  0  0  0  0  0  0
    7.1962    0.5000    0.0000 O   0  0  0  0  0  0  0  0  0  0  0  0
    6.3301    2.0000    0.0000 N   0  0  0  0  0  0  0  0  0  0  0  0
    2.8660   -1.0000    0.0000 C   0  0  0  0  0  0  0  0  0  0  0  0
    4.5981   -1.0000    0.0000 C   0  0  0  0  0  0  0  0  0  0  0  0
    2.0000   -0.5000    0.0000 C   0  0  0  0  0  0  0  0  0  0  0  0
    2.8660   -2.0000    0.0000 C   0  0  0  0  0  0  0  0  0  0  0  0
    5.4641   -0.5000    0.0000 C   0  0  0  0  0  0  0  0  0  0  0  0
    4.5981   -2.0000    0.0000 C   0  0  0  0  0  0  0  0  0  0  0  0
    6.3301   -1.0000    0.0000 C   0  0  0  0  0  0  0  0  0  0  0  0
    5.4641   -2.5000    0.0000 C   0  0  0  0  0  0  0  0  0  0  0  0
    6.3301   -2.0000    0.0000 C   0  0  0  0  0  0  0  0  0  0  0  0
    6.3301    1.0000    0.0000 C   0  0  0  0  0  0  0  0  0  0  0  0
    7.1962    2.5000    0.0000 C   0  0  0  0  0  0  0  0  0  0  0  0
  1  5  1  0  0  0  0
  1  6  1  0  0  0  0
  2  9  1  0  0  0  0
  2 14  1  0  0  0  0
  3 14  2  0  0  0  0
  4 14  1  0  0  0  0
  4 15  1  0  0  0  0
  5  7  1  0  0  0  0
  5  8  1  0  0  0  0
  6  9  1  0  0  0  0
  6 10  2  0  0  0  0
  9 11  2  0  0  0  0
 10 12  1  0  0  0  0
 11 13  1  0  0  0  0
 12 13  2  0  0  0  0
M  END
> <PUBCHEM_COMPOUND_CID>
4944

> <PUBCHEM_COMPOUND_CANONICALIZED>
1

> <PUBCHEM_CACTVS_COMPLEXITY>
206

> <PUBCHEM_CACTVS_HBOND_ACCEPTOR>
3

> <PUBCHEM_CACTVS_HBOND_DONOR>
1

> <PUBCHEM_CACTVS_ROTATABLE_BOND>
4

> <PUBCHEM_CACTVS_SUBSKEYS>
AAADccByMAAAAAAAAAAAAAAAAAAAAAAAAAAwAAAAAAAAAAABAAAAHgAQAAAACBSgkAYyDoLABACIACBCGAACCAAgIAAIiIAOiIkNJiKEMRqKOiKkwhEKqAeAQAAAAAAAAAAAQAAAAAAAAACAAAAAAAAAAA==

> <PUBCHEM_IUPAC_OPENEYE_NAME>
(2-isopropoxyphenyl) ~{N}-methylcarbamate

> <PUBCHEM_IUPAC_CAS_NAME>
~{N}-methylcarbamic acid (2-propan-2-yloxyphenyl) ester

> <PUBCHEM_IUPAC_NAME>
(2-propan-2-yloxyphenyl) ~{N}-methylcarbamate

> <PUBCHEM_IUPAC_SYSTEMATIC_NAME>
(2-propan-2-yloxyphenyl) ~{N}-methylcarbamate

> <PUBCHEM_IUPAC_TRADITIONAL_NAME>
~{N}-methylcarbamic acid (2-isopropoxyphenyl) ester

> <PUBCHEM_IUPAC_INCHI>
InChI=1S/C11H15NO3/c1-8(2)14-9-6-4-5-7-10(9)15-11(13)12-3/h4-8H,1-3H3,(H,12,13)

> <PUBCHEM_IUPAC_INCHIKEY>
ISRUGXGCCGIOQO-UHFFFAOYSA-N

> <PUBCHEM_XLOGP3>
1.5

> <PUBCHEM_EXACT_MASS>
209.105

> <PUBCHEM_MOLECULAR_FORMULA>
C11H15NO3

> <PUBCHEM_MOLECULAR_WEIGHT>
209.245

> <PUBCHEM_OPENEYE_CAN_SMILES>
CC(C)OC1=CC=CC=C1OC(=O)NC

> <PUBCHEM_OPENEYE_ISO_SMILES>
CC(C)OC1=CC=CC=C1OC(=O)NC

> <PUBCHEM_CACTVS_TPSA>
47.6

> <PUBCHEM_MONOISOTOPIC_WEIGHT>
209.105

> <PUBCHEM_TOTAL_CHARGE>
0

> <PUBCHEM_HEAVY_ATOM_COUNT>
15

> <PUBCHEM_ATOM_DEF_STEREO_COUNT>
0

> <PUBCHEM_ATOM_UDEF_STEREO_COUNT>
0

> <PUBCHEM_BOND_DEF_STEREO_COUNT>
0

> <PUBCHEM_BOND_UDEF_STEREO_COUNT>
0

> <PUBCHEM_ISOTOPIC_ATOM_COUNT>
0

> <PUBCHEM_COMPONENT_COUNT>
1

> <PUBCHEM_CACTVS_TAUTO_COUNT>
-1

> <PUBCHEM_COORDINATE_TYPE>
1
5
255

> <PUBCHEM_BONDANNOTATIONS>
10  12  8
11  13  8
12  13  8
6  10  8
6  9  8
9  11  8

$$$$
45039692
  -OEChem-02061914152D

 11 11  0     1  0  0  0  0  0999 V2000
    2.8660    1.1900    0.0000 O   0  0  0  0  0  0  0  0  0  0  0  0
    3.7320   -0.3100    0.0000 C   0  0  3  0  0  0  0  0  0  0  0  0
    3.7320    0.6900    0.0000 C   0  0  3  0  0  0  0  0  0  0  0  0
    4.5981   -0.8100    0.0000 C   0  0  0  0  0  0  0  0  0  0  0  0
    5.4641    0.6900    0.0000 C   0  0  3  0  0  0  0  0  0  0  0  0
    4.5981    1.1900    0.0000 C   0  0  0  0  0  0  0  0  0  0  0  0
    5.4641   -0.3100    0.0000 C   0  0  0  0  0  0  0  0  0  0  0  0
    2.8660   -0.8100    0.0000 C   0  0  0  0  0  0  0  0  0  0  0  0
    6.3301    1.1900    0.0000 C   0  0  0  0  0  0  0  0  0  0  0  0
    2.8660   -1.8100    0.0000 C   0  0  0  0  0  0  0  0  0  0  0  0
    2.0000   -0.3100    0.0000 C   0  0  0  0  0  0  0  0  0  0  0  0
  1  3  1  0  0  0  0
  2  3  1  0  0  0  0
  2  4  1  0  0  0  0
  2  8  1  0  0  0  0
  3  6  1  0  0  0  0
  4  7  1  0  0  0  0
  5  6  1  0  0  0  0
  5  7  1  0  0  0  0
  5  9  1  0  0  0  0
  8 10  1  0  0  0  0
  8 11  1  0  0  0  0
M  ISO  4  12   2  13   2  17   2  18   2
M  END
> <PUBCHEM_COMPOUND_CID>
45039692

> <PUBCHEM_COMPOUND_CANONICALIZED>
1

> <PUBCHEM_CACTVS_COMPLEXITY>
120

> <PUBCHEM_CACTVS_HBOND_ACCEPTOR>
1

> <PUBCHEM_CACTVS_HBOND_DONOR>
1

> <PUBCHEM_CACTVS_ROTATABLE_BOND>
1

> <PUBCHEM_CACTVS_SUBSKEYS>
AAADceBwIAAAAAAAAAAAAAAAAAAAAAAAAAAwAAAAAAAAAAAAAAAAGgAACAAADRSggAICAAAAAgAAAAAAAAAAAAAAAAAAAAAAAAAAEAIAAAAAQAAEAAAAAAGAwPAOgAAAAAAAAACAAAIAABAAAAAAAAAAAA==

> <PUBCHEM_IUPAC_OPENEYE_NAME>
1,2,2,6-tetradeuterio-6-isopropyl-3-methyl-cyclohexanol

> <PUBCHEM_IUPAC_CAS_NAME>
1,2,2,6-tetradeuterio-3-methyl-6-propan-2-yl-1-cyclohexanol

> <PUBCHEM_IUPAC_NAME>
1,2,2,6-tetradeuterio-3-methyl-6-propan-2-ylcyclohexan-1-ol

> <PUBCHEM_IUPAC_SYSTEMATIC_NAME>
1,2,2,6-tetradeuterio-3-methyl-6-propan-2-yl-cyclohexan-1-ol

> <PUBCHEM_IUPAC_TRADITIONAL_NAME>
1,2,2,6-tetradeuterio-6-isopropyl-3-methyl-cyclohexanol

> <PUBCHEM_IUPAC_INCHI>
InChI=1S/C10H20O/c1-7(2)9-5-4-8(3)6-10(9)11/h7-11H,4-6H2,1-3H3/i6D2,9D,10D

> <PUBCHEM_IUPAC_INCHIKEY>
NOOLISFMXDJSKH-JKQVIGAJSA-N

> <PUBCHEM_XLOGP3_AA>
3

> <PUBCHEM_EXACT_MASS>
160.177

> <PUBCHEM_MOLECULAR_FORMULA>
C10H20O

> <PUBCHEM_MOLECULAR_WEIGHT>
160.293

> <PUBCHEM_OPENEYE_CAN_SMILES>
CC1CCC(C(C1)O)C(C)C

> <PUBCHEM_OPENEYE_ISO_SMILES>
[2H]C1(C(CCC(C1([2H])O)([2H])C(C)C)C)[2H]

> <PUBCHEM_CACTVS_TPSA>
20.2

> <PUBCHEM_MONOISOTOPIC_WEIGHT>
160.177

> <PUBCHEM_TOTAL_CHARGE>
0

> <PUBCHEM_HEAVY_ATOM_COUNT>
11

> <PUBCHEM_ATOM_DEF_STEREO_COUNT>
0

> <PUBCHEM_ATOM_UDEF_STEREO_COUNT>
3

> <PUBCHEM_BOND_DEF_STEREO_COUNT>
0

> <PUBCHEM_BOND_UDEF_STEREO_COUNT>
0

> <PUBCHEM_ISOTOPIC_ATOM_COUNT>
4

> <PUBCHEM_COMPONENT_COUNT>
1

> <PUBCHEM_CACTVS_TAUTO_COUNT>
-1

> <PUBCHEM_COORDINATE_TYPE>
1
5
255

> <PUBCHEM_BONDANNOTATIONS>
2  12  3
3  13  3
5  9  3

$$$$
9649
  -OEChem-02061913072D

 29 35  0     1  0  0  0  0  0999 V2000
    7.6682   -2.1173    0.0000 O   0  0  0  0  0  0  0  0  0  0  0  0
    4.4011   -2.1552    0.0000 O   0  0  0  0  0  0  0  0  0  0  0  0
    2.0000    1.1552    0.0000 O   0  0  0  0  0  0  0  0  0  0  0  0
    2.0000   -0.7690    0.0000 O   0  0  0  0  0  0  0  0  0  0  0  0
    6.6757    2.0213    0.0000 N   0  0  3  0  0  0  0  0  0  0  0  0
    5.2671   -0.7310    0.0000 N   0  0  0  0  0  0  0  0  0  0  0  0
    6.0675    0.6552    0.0000 C   0  0  2  0  0  0  0  0  0  0  0  0
    6.0675   -0.2690    0.0000 C   0  0  3  0  0  0  0  0  0  0  0  0
    6.8678    1.1173    0.0000 C   0  0  2  0  0  0  0  0  0  0  0  0
    6.8678   -0.7310    0.0000 C   0  0  1  0  0  0  0  0  0  0  0  0
    7.6682   -0.2690    0.0000 C   0  0  1  0  0  0  0  0  0  0  0  0
    7.6682    0.6552    0.0000 C   0  0  0  0  0  0  0  0  0  0  0  0
    5.3807    1.2736    0.0000 C   0  0  0  0  0  0  0  0  0  0  0  0
    4.4668    0.6552    0.0000 C   0  0  0  0  0  0  0  0  0  0  0  0
    5.7566    2.1179    0.0000 C   0  0  0  0  0  0  0  0  0  0  0  0
    6.8678   -1.6552    0.0000 C   0  0  3  0  0  0  0  0  0  0  0  0
    8.5285   -0.6066    0.0000 C   0  0  0  0  0  0  0  0  0  0  0  0
    8.4927    1.2200    0.0000 C   0  0  0  0  0  0  0  0  0  0  0  0
    4.4668   -0.2690    0.0000 C   0  0  0  0  0  0  0  0  0  0  0  0
    6.0675   -2.1173    0.0000 C   0  0  0  0  0  0  0  0  0  0  0  0
    5.2671   -1.6552    0.0000 C   0  0  0  0  0  0  0  0  0  0  0  0
    3.6664    1.1173    0.0000 C   0  0  0  0  0  0  0  0  0  0  0  0
    8.8418   -1.2445    0.0000 C   0  0  0  0  0  0  0  0  0  0  0  0
    8.3900   -2.1070    0.0000 C   0  0  0  0  0  0  0  0  0  0  0  0
    3.6664   -0.7310    0.0000 C   0  0  0  0  0  0  0  0  0  0  0  0
    2.8660    0.6552    0.0000 C   0  0  0  0  0  0  0  0  0  0  0  0
    2.8660   -0.2690    0.0000 C   0  0  0  0  0  0  0  0  0  0  0  0
    2.0000    2.1552    0.0000 C   0  0  0  0  0  0  0  0  0  0  0  0
    2.0000   -1.7690    0.0000 C   0  0  0  0  0  0  0  0  0  0  0  0
  1 16  1  0  0  0  0
  1 24  1  0  0  0  0
  2 21  2  0  0  0  0
  3 26  1  0  0  0  0
  3 28  1  0  0  0  0
  4 27  1  0  0  0  0
  4 29  1  0  0  0  0
  5  9  1  0  0  0  0
  5 15  1  0  0  0  0
  5 18  1  0  0  0  0
  6  8  1  0  0  0  0
  6 19  1  0  0  0  0
  6 21  1  0  0  0  0
  7  8  1  0  0  0  0
  7  9  1  0  0  0  0
  7 13  1  0  0  0  0
  7 14  1  6  0  0  0
  8 10  1  0  0  0  0
  9 12  1  0  0  0  0
 10 11  1  0  0  0  0
 10 16  1  0  0  0  0
 11 12  1  0  0  0  0
 11 17  1  0  0  0  0
 13 15  1  0  0  0  0
 14 19  1  0  0  0  0
 14 22  2  0  0  0  0
 16 20  1  0  0  0  0
 17 18  1  0  0  0  0
 17 23  2  0  0  0  0
 19 25  2  0  0  0  0
 20 21  1  0  0  0  0
 22 26  1  0  0  0  0
 23 24  1  0  0  0  0
 25 27  1  0  0  0  0
 26 27  2  0  0  0  0
M  END
> <PUBCHEM_COMPOUND_CID>
9649

> <PUBCHEM_COMPOUND_CANONICALIZED>
1

> <PUBCHEM_CACTVS_COMPLEXITY>
785

> <PUBCHEM_CACTVS_HBOND_ACCEPTOR>
5

> <PUBCHEM_CACTVS_HBOND_DONOR>
0

> <PUBCHEM_CACTVS_ROTATABLE_BOND>
2

> <PUBCHEM_CACTVS_SUBSKEYS>
AAADceB7OAAAAAAAAAAAAAAAAAAAAWLAAAA8eIEABAAAAFgBAAAAHgAAAAAADzzhmAYyxoMABACIAiVSUACCCAAhIgAAiAEO7IgNJjbE8ZuGMCpm5hnK6Ae42fOfoEABAgACQADQgAaECCSAAAAAAAAAAA==

> <PUBCHEM_IUPAC_OPENEYE_NAME>
(4~{a}~{R},5~{a}~{S},8~{a}~{R},15~{b}~{R})-10,11-dimethoxy-4~{a},5,5~{a},7,8,13~{a},15,15~{a},15~{b},16-decahydro-2~{H}-4,6-methanoindolo[3,2,1-ij]oxepino[2,3,4-de]pyrrolo[2,3-h]quinolin-14-one

> <PUBCHEM_IUPAC_CAS_NAME>
(4~{a}~{R},5~{a}~{S},8~{a}~{R},15~{b}~{R})-10,11-dimethoxy-4~{a},5,5~{a},7,8,13~{a},15,15~{a},15~{b},16-decahydro-2~{H}-4,6-methanoindolo[3,2,1-ij]oxepino[2,3,4-de]pyrrolo[2,3-h]quinolin-14-one

> <PUBCHEM_IUPAC_NAME>
(4~{a}~{R},5~{a}~{S},8~{a}~{R},15~{b}~{R})-10,11-dimethoxy-4~{a},5,5~{a},7,8,13~{a},15,15~{a},15~{b},16-decahydro-2~{H}-4,6-methanoindolo[3,2,1-ij]oxepino[2,3,4-de]pyrrolo[2,3-h]quinolin-14-one

> <PUBCHEM_IUPAC_SYSTEMATIC_NAME>
(4~{a}~{R},5~{a}~{S},8~{a}~{R},15~{b}~{R})-10,11-dimethoxy-4~{a},5,5~{a},7,8,13~{a},15,15~{a},15~{b},16-decahydro-2~{H}-4,6-methanoindolo[3,2,1-ij]oxepino[2,3,4-de]pyrrolo[2,3-h]quinolin-14-one

> <PUBCHEM_IUPAC_TRADITIONAL_NAME>
(4~{a}~{R},5~{a}~{S},8~{a}~{R},15~{b}~{R})-10,11-dimethoxy-4~{a},5,5~{a},7,8,13~{a},15,15~{a},15~{b},16-decahydro-2~{H}-4,6-methanoindolo[3,2,1-ij]oxepino[2,3,4-de]pyrrolo[2,3-h]quinolin-14-one

> <PUBCHEM_IUPAC_INCHI>
InChI=1S/C23H26N2O4/c1-27-16-8-14-15(9-17(16)28-2)25-20(26)10-18-21-13-7-19-23(14,22(21)25)4-5-24(19)11-12(13)3-6-29-18/h3,8-9,13,18-19,21-22H,4-7,10-11H2,1-2H3/t13-,18?,19-,21-,22?,23+/m0/s1

> <PUBCHEM_IUPAC_INCHIKEY>
RRKTZKIUPZVBMF-PLNGPGDESA-N

> <PUBCHEM_XLOGP3>
1

> <PUBCHEM_EXACT_MASS>
394.189

> <PUBCHEM_MOLECULAR_FORMULA>
C23H26N2O4

> <PUBCHEM_MOLECULAR_WEIGHT>
394.471

> <PUBCHEM_OPENEYE_CAN_SMILES>
COC1=C(C=C2C(=C1)C34CCN5C3CC6C7C4N2C(=O)CC7OCC=C6C5)OC

> <PUBCHEM_OPENEYE_ISO_SMILES>
COC1=C(C=C2C(=C1)[C@]34CCN5[C@H]3C[C@@H]6[C@@H]7C4N2C(=O)CC7OCC=C6C5)OC

> <PUBCHEM_CACTVS_TPSA>
51.2

> <PUBCHEM_MONOISOTOPIC_WEIGHT>
394.189

> <PUBCHEM_TOTAL_CHARGE>
0

> <PUBCHEM_HEAVY_ATOM_COUNT>
29

> <PUBCHEM_ATOM_DEF_STEREO_COUNT>
4

> <PUBCHEM_ATOM_UDEF_STEREO_COUNT>
2

> <PUBCHEM_BOND_DEF_STEREO_COUNT>
0

> <PUBCHEM_BOND_UDEF_STEREO_COUNT>
0

> <PUBCHEM_ISOTOPIC_ATOM_COUNT>
0

> <PUBCHEM_COMPONENT_COUNT>
1

> <PUBCHEM_CACTVS_TAUTO_COUNT>
-1

> <PUBCHEM_COORDINATE_TYPE>
1
5
255

> <PUBCHEM_BONDANNOTATIONS>
10  32  6
11  33  6
14  19  8
14  22  8
16  20  3
19  25  8
22  26  8
25  27  8
26  27  8
8  6  3
7  14  6
9  31  6

$$$$
7102
  -OEChem-02061913072D

 13 14  0     0  0  0  0  0  0999 V2000
    2.8660   -2.8450    0.0000 N   0  0  0  0  0  0  0  0  0  0  0  0
    2.8660    0.1550    0.0000 C   0  0  0  0  0  0  0  0  0  0  0  0
    2.8660    1.1550    0.0000 C   0  0  0  0  0  0  0  0  0  0  0  0
    2.0000   -0.3450    0.0000 C   0  0  0  0  0  0  0  0  0  0  0  0
    3.7320   -0.3450    0.0000 C   0  0  0  0  0  0  0  0  0  0  0  0
    3.7320    1.6550    0.0000 C   0  0  0  0  0  0  0  0  0  0  0  0
    2.0000    1.6550    0.0000 C   0  0  0  0  0  0  0  0  0  0  0  0
    2.8660   -1.8450    0.0000 C   0  0  0  0  0  0  0  0  0  0  0  0
    2.0000   -1.3450    0.0000 C   0  0  0  0  0  0  0  0  0  0  0  0
    3.7320   -1.3450    0.0000 C   0  0  0  0  0  0  0  0  0  0  0  0
    3.7320    2.6550    0.0000 C   0  0  0  0  0  0  0  0  0  0  0  0
    2.0000    2.6550    0.0000 C   0  0  0  0  0  0  0  0  0  0  0  0
    2.8660    3.1550    0.0000 C   0  0  0  0  0  0  0  0  0  0  0  0
  1  8  1  0  0  0  0
  2  3  1  0  0  0  0
  2  4  2  0  0  0  0
  2  5  1  0  0  0  0
  3  6  2  0  0  0  0
  3  7  1  0  0  0  0
  4  9  1  0  0  0  0
  5 10  2  0  0  0  0
  6 11  1  0  0  0  0
  7 12  2  0  0  0  0
  8  9  2  0  0  0  0
  8 10  1  0  0  0  0
 11 13  2  0  0  0  0
 12 13  1  0  0  0  0
M  END
> <PUBCHEM_COMPOUND_CID>
7102

> <PUBCHEM_COMPOUND_CANONICALIZED>
1

> <PUBCHEM_CACTVS_COMPLEXITY>
141

> <PUBCHEM_CACTVS_HBOND_ACCEPTOR>
1

> <PUBCHEM_CACTVS_HBOND_DONOR>
1

> <PUBCHEM_CACTVS_ROTATABLE_BOND>
1

> <PUBCHEM_CACTVS_SUBSKEYS>
AAADccByAAAAAAAAAAAAAAAAAAAAAAAAAAAwYAAAAAAAAAABQAAAHAAQAAAADAiBGAAwwIBAAACAAiRCQACCAAAgAgAIiAAAZIgIICKAkZGAIABgkAAIyAcQgMAOiAAAAAAAAAAQAAAAAAAAAAAAAAAAAA==

> <PUBCHEM_IUPAC_OPENEYE_NAME>
4-phenylaniline

> <PUBCHEM_IUPAC_CAS_NAME>
4-phenylaniline

> <PUBCHEM_IUPAC_NAME>
4-phenylaniline

> <PUBCHEM_IUPAC_SYSTEMATIC_NAME>
4-phenylaniline

> <PUBCHEM_IUPAC_TRADITIONAL_NAME>
(4-phenylphenyl)amine

> <PUBCHEM_IUPAC_INCHI>
InChI=1S/C12H11N/c13-12-8-6-11(7-9-12)10-4-2-1-3-5-10/h1-9H,13H2

> <PUBCHEM_IUPAC_INCHIKEY>
DMVOXQPQNTYEKQ-UHFFFAOYSA-N

> <PUBCHEM_XLOGP3>
2.9

> <PUBCHEM_EXACT_MASS>
169.089

> <PUBCHEM_MOLECULAR_FORMULA>
C12H11N

> <PUBCHEM_MOLECULAR_WEIGHT>
169.227

> <PUBCHEM_OPENEYE_CAN_SMILES>
C1=CC=C(C=C1)C2=CC=C(C=C2)N

> <PUBCHEM_OPENEYE_ISO_SMILES>
C1=CC=C(C=C1)C2=CC=C(C=C2)N

> <PUBCHEM_CACTVS_TPSA>
26

> <PUBCHEM_MONOISOTOPIC_WEIGHT>
169.089

> <PUBCHEM_TOTAL_CHARGE>
0

> <PUBCHEM_HEAVY_ATOM_COUNT>
13

> <PUBCHEM_ATOM_DEF_STEREO_COUNT>
0

> <PUBCHEM_ATOM_UDEF_STEREO_COUNT>
0

> <PUBCHEM_BOND_DEF_STEREO_COUNT>
0

> <PUBCHEM_BOND_UDEF_STEREO_COUNT>
0

> <PUBCHEM_ISOTOPIC_ATOM_COUNT>
0

> <PUBCHEM_COMPONENT_COUNT>
1

> <PUBCHEM_CACTVS_TAUTO_COUNT>
-1

> <PUBCHEM_COORDINATE_TYPE>
1
5
255

> <PUBCHEM_BONDANNOTATIONS>
11  13  8
12  13  8
2  4  8
2  5  8
3  6  8
3  7  8
4  9  8
5  10  8
6  11  8
7  12  8
8  10  8
8  9  8

$$$$
5317112
  -OEChem-02061913342D

 24 27  0     1  0  0  0  0  0999 V2000
    5.5320    0.2350    0.0000 O   0  0  0  0  0  0  0  0  0  0  0  0
    2.8680   -1.2408    0.0000 O   0  0  0  0  0  0  0  0  0  0  0  0
    7.9557    1.4507    0.0000 N   0  0  3  0  0  0  0  0  0  0  0  0
    6.3981   -3.2650    0.0000 N   0  0  0  0  0  0  0  0  0  0  0  0
    8.8217    1.9507    0.0000 C   0  0  2  0  0  0  0  0  0  0  0  0
    7.2641    0.2350    0.0000 C   0  0  1  0  0  0  0  0  0  0  0  0
    8.2300   -0.0238    0.0000 C   0  0  0  0  0  0  0  0  0  0  0  0
   10.2110    1.3986    0.0000 C   0  0  2  0  0  0  0  0  0  0  0  0
    8.1923    3.2997    0.0000 C   0  0  0  0  0  0  0  0  0  0  0  0
    9.7884    0.4923    0.0000 C   0  0  0  0  0  0  0  0  0  0  0  0
    7.3263    2.7997    0.0000 C   0  0  0  0  0  0  0  0  0  0  0  0
    6.3981   -0.2650    0.0000 C   0  0  2  0  0  0  0  0  0  0  0  0
   11.1507    1.7407    0.0000 C   0  0  0  0  0  0  0  0  0  0  0  0
    6.3981   -1.2650    0.0000 C   0  0  0  0  0  0  0  0  0  0  0  0
   11.9167    1.0979    0.0000 C   0  0  0  0  0  0  0  0  0  0  0  0
    5.5320   -1.7650    0.0000 C   0  0  0  0  0  0  0  0  0  0  0  0
    7.2641   -1.7650    0.0000 C   0  0  0  0  0  0  0  0  0  0  0  0
    5.5320   -2.7650    0.0000 C   0  0  0  0  0  0  0  0  0  0  0  0
    4.6381   -1.2303    0.0000 C   0  0  0  0  0  0  0  0  0  0  0  0
    7.2641   -2.7650    0.0000 C   0  0  0  0  0  0  0  0  0  0  0  0
    4.6381   -3.2997    0.0000 C   0  0  0  0  0  0  0  0  0  0  0  0
    3.7320   -1.7442    0.0000 C   0  0  0  0  0  0  0  0  0  0  0  0
    3.7320   -2.7858    0.0000 C   0  0  0  0  0  0  0  0  0  0  0  0
    2.0000   -1.7375    0.0000 C   0  0  0  0  0  0  0  0  0  0  0  0
 12  1  1  6  0  0  0
  2 22  1  0  0  0  0
  2 24  1  0  0  0  0
  3  6  1  0  0  0  0
  3 10  1  0  0  0  0
  3 11  1  0  0  0  0
  4 18  2  0  0  0  0
  4 20  1  0  0  0  0
  5  7  1  0  0  0  0
  5  8  1  0  0  0  0
  5  9  1  0  0  0  0
  6  7  1  0  0  0  0
  6 12  1  0  0  0  0
  8 10  1  0  0  0  0
  8 13  1  1  0  0  0
  9 11  1  0  0  0  0
 12 14  1  0  0  0  0
 13 15  2  0  0  0  0
 14 16  2  0  0  0  0
 14 17  1  0  0  0  0
 16 18  1  0  0  0  0
 16 19  1  0  0  0  0
 17 20  2  0  0  0  0
 18 21  1  0  0  0  0
 19 22  2  0  0  0  0
 21 23  2  0  0  0  0
 22 23  1  0  0  0  0
M  END
> <PUBCHEM_COMPOUND_CID>
5317112

> <PUBCHEM_COMPOUND_CANONICALIZED>
1

> <PUBCHEM_CACTVS_COMPLEXITY>
457

> <PUBCHEM_CACTVS_HBOND_ACCEPTOR>
4

> <PUBCHEM_CACTVS_HBOND_DONOR>
1

> <PUBCHEM_CACTVS_ROTATABLE_BOND>
4

> <PUBCHEM_CACTVS_SUBSKEYS>
AAADceB7MAAAAAAAAAAAAAAAAAAAAAAAAAA8WLFiAAAAAACx8AAAHgAACAAADTzhngY+xvMIFgCgAzRnRACCiCAxIiAI2CA+bJgONuLEsZuEcChkwBHY+Aew4PwOgEABAAACAAAAgAIAAAQAAAAAAAAAAA==

> <PUBCHEM_IUPAC_OPENEYE_NAME>
(~{S})-(6-methoxy-4-quinolyl)-[(2~{S},4~{R},5~{R})-5-vinylquinuclidin-2-yl]methanol

> <PUBCHEM_IUPAC_CAS_NAME>
(~{S})-[(2~{S},4~{R},5~{R})-5-ethenyl-1-azabicyclo[2.2.2]octan-2-yl]-(6-methoxy-4-quinolinyl)methanol

> <PUBCHEM_IUPAC_NAME>
(~{S})-[(2~{S},4~{R},5~{R})-5-ethenyl-1-azabicyclo[2.2.2]octan-2-yl]-(6-methoxyquinolin-4-yl)methanol

> <PUBCHEM_IUPAC_SYSTEMATIC_NAME>
(~{S})-[(2~{S},4~{R},5~{R})-5-ethenyl-1-azabicyclo[2.2.2]octan-2-yl]-(6-methoxyquinolin-4-yl)methanol

> <PUBCHEM_IUPAC_TRADITIONAL_NAME>
(~{S})-(6-methoxy-4-quinolyl)-[(2~{S},4~{R},5~{R})-5-vinylquinuclidin-2-yl]methanol

> <PUBCHEM_IUPAC_INCHI>
InChI=1S/C20H24N2O2/c1-3-13-12-22-9-7-14(13)10-19(22)20(23)16-6-8-21-18-5-4-15(24-2)11-17(16)18/h3-6,8,11,13-14,19-20,23H,1,7,9-10,12H2,2H3/t13-,14+,19-,20-/m0/s1

> <PUBCHEM_IUPAC_INCHIKEY>
LOUPRKONTZGTKE-ILWKUFEGSA-N

> <PUBCHEM_XLOGP3>
2.9

> <PUBCHEM_EXACT_MASS>
324.184

> <PUBCHEM_MOLECULAR_FORMULA>
C20H24N2O2

> <PUBCHEM_MOLECULAR_WEIGHT>
324.424

> <PUBCHEM_OPENEYE_CAN_SMILES>
COC1=CC2=C(C=CN=C2C=C1)C(C3CC4CCN3CC4C=C)O

> <PUBCHEM_OPENEYE_ISO_SMILES>
COC1=CC2=C(C=CN=C2C=C1)[C@@H]([C@@H]3C[C@H]4CCN3C[C@@H]4C=C)O

> <PUBCHEM_CACTVS_TPSA>
45.6

> <PUBCHEM_MONOISOTOPIC_WEIGHT>
324.184

> <PUBCHEM_TOTAL_CHARGE>
0

> <PUBCHEM_HEAVY_ATOM_COUNT>
24

> <PUBCHEM_ATOM_DEF_STEREO_COUNT>
4

> <PUBCHEM_ATOM_UDEF_STEREO_COUNT>
0

> <PUBCHEM_BOND_DEF_STEREO_COUNT>
0

> <PUBCHEM_BOND_UDEF_STEREO_COUNT>
0

> <PUBCHEM_ISOTOPIC_ATOM_COUNT>
0

> <PUBCHEM_COMPONENT_COUNT>
1

> <PUBCHEM_CACTVS_TAUTO_COUNT>
-1

> <PUBCHEM_COORDINATE_TYPE>
1
5
255

> <PUBCHEM_BONDANNOTATIONS>
12  1  6
14  16  8
14  17  8
16  18  8
16  19  8
17  20  8
18  21  8
19  22  8
21  23  8
22  23  8
4  18  8
4  20  8
5  25  6
6  26  6
8  13  5

$$$$
8447
  -OEChem-02061913072D

 20 23  0     0  0  0  0  0  0999 V2000
    4.6783    1.2377    0.0000 S   0  0  0  0  0  0  0  0  0  0  0  0
    8.3455    0.3717    0.0000 S   0  0  0  0  0  0  0  0  0  0  0  0
    6.2619    0.4330    0.0000 S   0  0  0  0  0  0  0  0  0  0  0  0
    6.7619   -0.4330    0.0000 S   0  0  0  0  0  0  0  0  0  0  0  0
    8.3455   -1.2377    0.0000 N   0  0  0  0  0  0  0  0  0  0  0  0
    4.6783   -0.3717    0.0000 N   0  0  0  0  0  0  0  0  0  0  0  0
    9.2917    0.0670    0.0000 C   0  0  0  0  0  0  0  0  0  0  0  0
    3.7320    0.9330    0.0000 C   0  0  0  0  0  0  0  0  0  0  0  0
    9.2917   -0.9330    0.0000 C   0  0  0  0  0  0  0  0  0  0  0  0
    3.7320   -0.0670    0.0000 C   0  0  0  0  0  0  0  0  0  0  0  0
   10.1577    0.5670    0.0000 C   0  0  0  0  0  0  0  0  0  0  0  0
    2.8660    1.4330    0.0000 C   0  0  0  0  0  0  0  0  0  0  0  0
   10.1577   -1.4330    0.0000 C   0  0  0  0  0  0  0  0  0  0  0  0
    2.8660   -0.5670    0.0000 C   0  0  0  0  0  0  0  0  0  0  0  0
    7.7619   -0.4330    0.0000 C   0  0  0  0  0  0  0  0  0  0  0  0
    5.2619    0.4330    0.0000 C   0  0  0  0  0  0  0  0  0  0  0  0
    2.0000    0.9330    0.0000 C   0  0  0  0  0  0  0  0  0  0  0  0
   11.0238    0.0670    0.0000 C   0  0  0  0  0  0  0  0  0  0  0  0
    2.0000   -0.0670    0.0000 C   0  0  0  0  0  0  0  0  0  0  0  0
   11.0238   -0.9330    0.0000 C   0  0  0  0  0  0  0  0  0  0  0  0
  1  8  1  0  0  0  0
  1 16  1  0  0  0  0
  2  7  1  0  0  0  0
  2 15  1  0  0  0  0
  3  4  1  0  0  0  0
  3 16  1  0  0  0  0
  4 15  1  0  0  0  0
  5  9  1  0  0  0  0
  5 15  2  0  0  0  0
  6 10  1  0  0  0  0
  6 16  2  0  0  0  0
  7  9  1  0  0  0  0
  7 11  2  0  0  0  0
  8 10  1  0  0  0  0
  8 12  2  0  0  0  0
  9 13  2  0  0  0  0
 10 14  2  0  0  0  0
 11 18  1  0  0  0  0
 12 17  1  0  0  0  0
 13 20  1  0  0  0  0
 14 19  1  0  0  0  0
 17 19  2  0  0  0  0
 18 20  2  0  0  0  0
M  END
> <PUBCHEM_COMPOUND_CID>
8447

> <PUBCHEM_COMPOUND_CANONICALIZED>
1

> <PUBCHEM_CACTVS_COMPLEXITY>
311

> <PUBCHEM_CACTVS_HBOND_ACCEPTOR>
6

> <PUBCHEM_CACTVS_HBOND_DONOR>
0

> <PUBCHEM_CACTVS_ROTATABLE_BOND>
3

> <PUBCHEM_CACTVS_SUBSKEYS>
AAADccBzAABwAAAAAAAAAAAAAAAAAWLAAAAwYAAAAAAAAFgB/gAAHAQAAAAACAiBVgAwwbIIEAikASRiRACD8aBhCjhImDwwZJgIIKLgkZGEIAhggABIyAcQAAAAAAAAAAAAAQAAAAAAAAACAAAAAAAAAA==

> <PUBCHEM_IUPAC_OPENEYE_NAME>
2-(1,3-benzothiazol-2-yldisulfanyl)-1,3-benzothiazole

> <PUBCHEM_IUPAC_CAS_NAME>
2-(1,3-benzothiazol-2-yldisulfanyl)-1,3-benzothiazole

> <PUBCHEM_IUPAC_NAME>
2-(1,3-benzothiazol-2-yldisulfanyl)-1,3-benzothiazole

> <PUBCHEM_IUPAC_SYSTEMATIC_NAME>
2-(1,3-benzothiazol-2-yldisulfanyl)-1,3-benzothiazole

> <PUBCHEM_IUPAC_TRADITIONAL_NAME>
2-(1,3-benzothiazol-2-yldisulfanyl)-1,3-benzothiazole

> <PUBCHEM_IUPAC_INCHI>
InChI=1S/C14H8N2S4/c1-3-7-11-9(5-1)15-13(17-11)19-20-14-16-10-6-2-4-8-12(10)18-14/h1-8H

> <PUBCHEM_IUPAC_INCHIKEY>
AFZSMODLJJCVPP-UHFFFAOYSA-N

> <PUBCHEM_XLOGP3_AA>
5.6

> <PUBCHEM_EXACT_MASS>
331.957

> <PUBCHEM_MOLECULAR_FORMULA>
C14H8N2S4

> <PUBCHEM_MOLECULAR_WEIGHT>
332.472

> <PUBCHEM_OPENEYE_CAN_SMILES>
C1=CC=C2C(=C1)N=C(S2)SSC3=NC4=CC=CC=C4S3

> <PUBCHEM_OPENEYE_ISO_SMILES>
C1=CC=C2C(=C1)N=C(S2)SSC3=NC4=CC=CC=C4S3

> <PUBCHEM_CACTVS_TPSA>
133

> <PUBCHEM_MONOISOTOPIC_WEIGHT>
331.957

> <PUBCHEM_TOTAL_CHARGE>
0

> <PUBCHEM_HEAVY_ATOM_COUNT>
20

> <PUBCHEM_ATOM_DEF_STEREO_COUNT>
0

> <PUBCHEM_ATOM_UDEF_STEREO_COUNT>
0

> <PUBCHEM_BOND_DEF_STEREO_COUNT>
0

> <PUBCHEM_BOND_UDEF_STEREO_COUNT>
0

> <PUBCHEM_ISOTOPIC_ATOM_COUNT>
0

> <PUBCHEM_COMPONENT_COUNT>
1

> <PUBCHEM_CACTVS_TAUTO_COUNT>
-1

> <PUBCHEM_COORDINATE_TYPE>
1
5
255

> <PUBCHEM_BONDANNOTATIONS>
1  16  8
1  8  8
10  14  8
11  18  8
12  17  8
13  20  8
14  19  8
17  19  8
18  20  8
2  15  8
2  7  8
5  15  8
5  9  8
6  10  8
6  16  8
7  11  8
7  9  8
8  10  8
8  12  8
9  13  8

$$$$
8343
  -OEChem-02061913072D

 28 28  0     1  0  0  0  0  0999 V2000
   10.6603   -0.5000    0.0000 O   0  0  0  0  0  0  0  0  0  0  0  0
    7.1962   -2.5000    0.0000 O   0  0  0  0  0  0  0  0  0  0  0  0
    8.9282   -0.5000    0.0000 O   0  0  0  0  0  0  0  0  0  0  0  0
    8.0622   -1.0000    0.0000 O   0  0  0  0  0  0  0  0  0  0  0  0
    5.4641   -2.5000    0.0000 C   0  0  3  0  0  0  0  0  0  0  0  0
   11.5263    1.0000    0.0000 C   0  0  3  0  0  0  0  0  0  0  0  0
   11.5263    2.0000    0.0000 C   0  0  0  0  0  0  0  0  0  0  0  0
    4.5981   -2.0000    0.0000 C   0  0  0  0  0  0  0  0  0  0  0  0
    5.4641   -3.5000    0.0000 C   0  0  0  0  0  0  0  0  0  0  0  0
   12.3923    0.5000    0.0000 C   0  0  0  0  0  0  0  0  0  0  0  0
   12.3923    2.5000    0.0000 C   0  0  0  0  0  0  0  0  0  0  0  0
    3.7320   -2.5000    0.0000 C   0  0  0  0  0  0  0  0  0  0  0  0
   10.6603    0.5000    0.0000 C   0  0  0  0  0  0  0  0  0  0  0  0
    6.3301   -2.0000    0.0000 C   0  0  0  0  0  0  0  0  0  0  0  0
   12.3923    3.5000    0.0000 C   0  0  0  0  0  0  0  0  0  0  0  0
    2.8660   -2.0000    0.0000 C   0  0  0  0  0  0  0  0  0  0  0  0
   13.2583    1.0000    0.0000 C   0  0  0  0  0  0  0  0  0  0  0  0
    4.5981   -4.0000    0.0000 C   0  0  0  0  0  0  0  0  0  0  0  0
   13.2583    4.0000    0.0000 C   0  0  0  0  0  0  0  0  0  0  0  0
    2.0000   -2.5000    0.0000 C   0  0  0  0  0  0  0  0  0  0  0  0
    8.0622   -2.0000    0.0000 C   0  0  0  0  0  0  0  0  0  0  0  0
    9.7942   -1.0000    0.0000 C   0  0  0  0  0  0  0  0  0  0  0  0
    9.7942   -2.0000    0.0000 C   0  0  0  0  0  0  0  0  0  0  0  0
    8.9282   -2.5000    0.0000 C   0  0  0  0  0  0  0  0  0  0  0  0
   10.6603   -2.5000    0.0000 C   0  0  0  0  0  0  0  0  0  0  0  0
    8.9282   -3.5000    0.0000 C   0  0  0  0  0  0  0  0  0  0  0  0
   10.6603   -3.5000    0.0000 C   0  0  0  0  0  0  0  0  0  0  0  0
    9.7942   -4.0000    0.0000 C   0  0  0  0  0  0  0  0  0  0  0  0
  1 13  1  0  0  0  0
  1 22  1  0  0  0  0
  2 14  1  0  0  0  0
  2 21  1  0  0  0  0
  3 22  2  0  0  0  0
  4 21  2  0  0  0  0
  5  8  1  0  0  0  0
  5  9  1  0  0  0  0
  5 14  1  0  0  0  0
  6  7  1  0  0  0  0
  6 10  1  0  0  0  0
  6 13  1  0  0  0  0
  7 11  1  0  0  0  0
  8 12  1  0  0  0  0
  9 18  1  0  0  0  0
 10 17  1  0  0  0  0
 11 15  1  0  0  0  0
 12 16  1  0  0  0  0
 15 19  1  0  0  0  0
 16 20  1  0  0  0  0
 21 24  1  0  0  0  0
 22 23  1  0  0  0  0
 23 24  1  0  0  0  0
 23 25  2  0  0  0  0
 24 26  2  0  0  0  0
 25 27  1  0  0  0  0
 26 28  1  0  0  0  0
 27 28  2  0  0  0  0
M  END
> <PUBCHEM_COMPOUND_CID>
8343

> <PUBCHEM_COMPOUND_CANONICALIZED>
1

> <PUBCHEM_CACTVS_COMPLEXITY>
394

> <PUBCHEM_CACTVS_HBOND_ACCEPTOR>
4

> <PUBCHEM_CACTVS_HBOND_DONOR>
0

> <PUBCHEM_CACTVS_ROTATABLE_BOND>
16

> <PUBCHEM_CACTVS_SUBSKEYS>
AAADcfB4OAAAAAAAAAAAAAAAAAAAAAAAAAAwAAAAAAAAAAABAAAAGgAAAAAADQCgmAIyCIAABACIAiDSCAACAAAkAAAIiAEACMgIJjKANRiCMQAkwAEIqYfLyKCOgAAAAAAQAAAAAAAAACAAAAAAAAAAAA==

> <PUBCHEM_IUPAC_OPENEYE_NAME>
bis(2-ethylhexyl) benzene-1,2-dicarboxylate

> <PUBCHEM_IUPAC_CAS_NAME>
benzene-1,2-dicarboxylic acid bis(2-ethylhexyl) ester

> <PUBCHEM_IUPAC_NAME>
bis(2-ethylhexyl) benzene-1,2-dicarboxylate

> <PUBCHEM_IUPAC_SYSTEMATIC_NAME>
bis(2-ethylhexyl) benzene-1,2-dicarboxylate

> <PUBCHEM_IUPAC_TRADITIONAL_NAME>
benzene-1,2-dicarboxylic acid bis(2-ethylhexyl) ester

> <PUBCHEM_IUPAC_INCHI>
InChI=1S/C24H38O4/c1-5-9-13-19(7-3)17-27-23(25)21-15-11-12-16-22(21)24(26)28-18-20(8-4)14-10-6-2/h11-12,15-16,19-20H,5-10,13-14,17-18H2,1-4H3

> <PUBCHEM_IUPAC_INCHIKEY>
BJQHLKABXJIVAM-UHFFFAOYSA-N

> <PUBCHEM_XLOGP3>
7.4

> <PUBCHEM_EXACT_MASS>
390.277

> <PUBCHEM_MOLECULAR_FORMULA>
C24H38O4

> <PUBCHEM_MOLECULAR_WEIGHT>
390.564

> <PUBCHEM_OPENEYE_CAN_SMILES>
CCCCC(CC)COC(=O)C1=CC=CC=C1C(=O)OCC(CC)CCCC

> <PUBCHEM_OPENEYE_ISO_SMILES>
CCCCC(CC)COC(=O)C1=CC=CC=C1C(=O)OCC(CC)CCCC

> <PUBCHEM_CACTVS_TPSA>
52.6

> <PUBCHEM_MONOISOTOPIC_WEIGHT>
390.277

> <PUBCHEM_TOTAL_CHARGE>
0

> <PUBCHEM_HEAVY_ATOM_COUNT>
28

> <PUBCHEM_ATOM_DEF_STEREO_COUNT>
0

> <PUBCHEM_ATOM_UDEF_STEREO_COUNT>
2

> <PUBCHEM_BOND_DEF_STEREO_COUNT>
0

> <PUBCHEM_BOND_UDEF_STEREO_COUNT>
0

> <PUBCHEM_ISOTOPIC_ATOM_COUNT>
0

> <PUBCHEM_COMPONENT_COUNT>
1

> <PUBCHEM_CACTVS_TAUTO_COUNT>
-1

> <PUBCHEM_COORDINATE_TYPE>
1
5
255

> <PUBCHEM_BONDANNOTATIONS>
23  24  8
23  25  8
24  26  8
25  27  8
26  28  8
27  28  8
5  9  3
6  10  3

$$$$
5273469
  -OEChem-02061913352D

 18 19  0     0  0  0  0  0  0999 V2000
    4.5981    1.0000    0.0000 O   0  0  0  0  0  0  0  0  0  0  0  0
    2.8660    1.0000    0.0000 O   0  0  0  0  0  0  0  0  0  0  0  0
    5.4641    2.5000    0.0000 C   0  0  0  0  0  0  0  0  0  0  0  0
    4.5981    2.0000    0.0000 C   0  0  0  0  0  0  0  0  0  0  0  0
    6.3301    2.0000    0.0000 C   0  0  0  0  0  0  0  0  0  0  0  0
    5.4641    3.5000    0.0000 C   0  0  0  0  0  0  0  0  0  0  0  0
    2.8660   -2.0000    0.0000 C   0  0  0  0  0  0  0  0  0  0  0  0
    7.1962    2.5000    0.0000 C   0  0  0  0  0  0  0  0  0  0  0  0
    6.3301    4.0000    0.0000 C   0  0  0  0  0  0  0  0  0  0  0  0
    7.1962    3.5000    0.0000 C   0  0  0  0  0  0  0  0  0  0  0  0
    2.8660   -1.0000    0.0000 C   0  0  0  0  0  0  0  0  0  0  0  0
    3.7320   -2.5000    0.0000 C   0  0  0  0  0  0  0  0  0  0  0  0
    2.0000   -2.5000    0.0000 C   0  0  0  0  0  0  0  0  0  0  0  0
    3.7320   -0.5000    0.0000 C   0  0  0  0  0  0  0  0  0  0  0  0
    3.7320    0.5000    0.0000 C   0  0  0  0  0  0  0  0  0  0  0  0
    3.7320   -3.5000    0.0000 C   0  0  0  0  0  0  0  0  0  0  0  0
    2.0000   -3.5000    0.0000 C   0  0  0  0  0  0  0  0  0  0  0  0
    2.8660   -4.0000    0.0000 C   0  0  0  0  0  0  0  0  0  0  0  0
  1  4  1  0  0  0  0
  1 15  1  0  0  0  0
  2 15  2  0  0  0  0
  3  4  1  0  0  0  0
  3  5  2  0  0  0  0
  3  6  1  0  0  0  0
  5  8  1  0  0  0  0
  6  9  2  0  0  0  0
  7 11  1  0  0  0  0
  7 12  2  0  0  0  0
  7 13  1  0  0  0  0
  8 10  2  0  0  0  0
  9 10  1  0  0  0  0
 11 14  2  0  0  0  0
 12 16  1  0  0  0  0
 13 17  2  0  0  0  0
 14 15  1  0  0  0  0
 16 18  2  0  0  0  0
 17 18  1  0  0  0  0
M  END
> <PUBCHEM_COMPOUND_CID>
5273469

> <PUBCHEM_COMPOUND_CANONICALIZED>
1

> <PUBCHEM_CACTVS_COMPLEXITY>
271

> <PUBCHEM_CACTVS_HBOND_ACCEPTOR>
2

> <PUBCHEM_CACTVS_HBOND_DONOR>
0

> <PUBCHEM_CACTVS_ROTATABLE_BOND>
5

> <PUBCHEM_CACTVS_SUBSKEYS>
AAADccB4MAAAAAAAAAAAAAAAAAAAAAAAAAAwYAAAAAAAAAABQAAAGgAAAAAADACgmAIwCIAABACIAiDSCAACAAAgAAAIiAAACMgIJiKAMRiCMAAkwAEIqYeAwCAOAAAAAAAAAAAAAAAAAAAAAAAAAAAAAA==

> <PUBCHEM_IUPAC_OPENEYE_NAME>
benzyl (~{E})-3-phenylprop-2-enoate

> <PUBCHEM_IUPAC_CAS_NAME>
(~{E})-3-phenyl-2-propenoic acid (phenylmethyl) ester

> <PUBCHEM_IUPAC_NAME>
benzyl (~{E})-3-phenylprop-2-enoate

> <PUBCHEM_IUPAC_SYSTEMATIC_NAME>
(phenylmethyl) (~{E})-3-phenylprop-2-enoate

> <PUBCHEM_IUPAC_TRADITIONAL_NAME>
(~{E})-3-phenylacrylic acid benzyl ester

> <PUBCHEM_IUPAC_INCHI>
InChI=1S/C16H14O2/c17-16(12-11-14-7-3-1-4-8-14)18-13-15-9-5-2-6-10-15/h1-12H,13H2/b12-11+

> <PUBCHEM_IUPAC_INCHIKEY>
NGHOLYJTSCBCGC-VAWYXSNFSA-N

> <PUBCHEM_XLOGP3>
3.8

> <PUBCHEM_EXACT_MASS>
238.099

> <PUBCHEM_MOLECULAR_FORMULA>
C16H14O2

> <PUBCHEM_MOLECULAR_WEIGHT>
238.286

> <PUBCHEM_OPENEYE_CAN_SMILES>
C1=CC=C(C=C1)COC(=O)C=CC2=CC=CC=C2

> <PUBCHEM_OPENEYE_ISO_SMILES>
C1=CC=C(C=C1)COC(=O)/C=C/C2=CC=CC=C2

> <PUBCHEM_CACTVS_TPSA>
26.3

> <PUBCHEM_MONOISOTOPIC_WEIGHT>
238.099

> <PUBCHEM_TOTAL_CHARGE>
0

> <PUBCHEM_HEAVY_ATOM_COUNT>
18

> <PUBCHEM_ATOM_DEF_STEREO_COUNT>
0

> <PUBCHEM_ATOM_UDEF_STEREO_COUNT>
0

> <PUBCHEM_BOND_DEF_STEREO_COUNT>
1

> <PUBCHEM_BOND_UDEF_STEREO_COUNT>
0

> <PUBCHEM_ISOTOPIC_ATOM_COUNT>
0

> <PUBCHEM_COMPONENT_COUNT>
1

> <PUBCHEM_CACTVS_TAUTO_COUNT>
-1

> <PUBCHEM_COORDINATE_TYPE>
1
5
255

> <PUBCHEM_BONDANNOTATIONS>
12  16  8
13  17  8
16  18  8
17  18  8
3  5  8
3  6  8
5  8  8
6  9  8
7  12  8
7  13  8
8  10  8
9  10  8

$$$$
8029
  -OEChem-02061913072D

  5  5  0     0  0  0  0  0  0999 V2000
    2.8090   -0.7694    0.0000 O   0  0  0  0  0  0  0  0  0  0  0  0
    3.3090    0.7694    0.0000 C   0  0  0  0  0  0  0  0  0  0  0  0
    2.3090    0.7694    0.0000 C   0  0  0  0  0  0  0  0  0  0  0  0
    3.6180   -0.1816    0.0000 C   0  0  0  0  0  0  0  0  0  0  0  0
    2.0000   -0.1816    0.0000 C   0  0  0  0  0  0  0  0  0  0  0  0
  1  4  1  0  0  0  0
  1  5  1  0  0  0  0
  2  3  1  0  0  0  0
  2  4  2  0  0  0  0
  3  5  2  0  0  0  0
M  END
> <PUBCHEM_COMPOUND_CID>
8029

> <PUBCHEM_COMPOUND_CANONICALIZED>
1

> <PUBCHEM_CACTVS_COMPLEXITY>
22.8

> <PUBCHEM_CACTVS_HBOND_ACCEPTOR>
1

> <PUBCHEM_CACTVS_HBOND_DONOR>
0

> <PUBCHEM_CACTVS_ROTATABLE_BOND>
0

> <PUBCHEM_CACTVS_SUBSKEYS>
AAADcYBgIAAAAAAAAAAAAAAAAAAAASAAAAAAAAAAAAAAAAABgAAAGgAAAAAACACgkAIwBIAABECIAChSgAACCAAkIAAIiAEGCMgMJhAEJQoCGSCEQBEAIYAAAAAAAAAAAAAAAAAAAAAAAAAAAAAAAAAAAA==

> <PUBCHEM_IUPAC_OPENEYE_NAME>
furan

> <PUBCHEM_IUPAC_CAS_NAME>
furan

> <PUBCHEM_IUPAC_NAME>
furan

> <PUBCHEM_IUPAC_SYSTEMATIC_NAME>
furan

> <PUBCHEM_IUPAC_TRADITIONAL_NAME>
furan

> <PUBCHEM_IUPAC_INCHI>
InChI=1S/C4H4O/c1-2-4-5-3-1/h1-4H

> <PUBCHEM_IUPAC_INCHIKEY>
YLQBMQCUIZJEEH-UHFFFAOYSA-N

> <PUBCHEM_XLOGP3>
1.3

> <PUBCHEM_EXACT_MASS>
68.026

> <PUBCHEM_MOLECULAR_FORMULA>
C4H4O

> <PUBCHEM_MOLECULAR_WEIGHT>
68.075

> <PUBCHEM_OPENEYE_CAN_SMILES>
C1=COC=C1

> <PUBCHEM_OPENEYE_ISO_SMILES>
C1=COC=C1

> <PUBCHEM_CACTVS_TPSA>
13.1

> <PUBCHEM_MONOISOTOPIC_WEIGHT>
68.026

> <PUBCHEM_TOTAL_CHARGE>
0

> <PUBCHEM_HEAVY_ATOM_COUNT>
5

> <PUBCHEM_ATOM_DEF_STEREO_COUNT>
0

> <PUBCHEM_ATOM_UDEF_STEREO_COUNT>
0

> <PUBCHEM_BOND_DEF_STEREO_COUNT>
0

> <PUBCHEM_BOND_UDEF_STEREO_COUNT>
0

> <PUBCHEM_ISOTOPIC_ATOM_COUNT>
0

> <PUBCHEM_COMPONENT_COUNT>
1

> <PUBCHEM_CACTVS_TAUTO_COUNT>
-1

> <PUBCHEM_COORDINATE_TYPE>
1
5
255

> <PUBCHEM_BONDANNOTATIONS>
1  4  8
1  5  8
2  3  8
2  4  8
3  5  8

$$$$
439550
  -OEChem-02061913092D

 29 32  0     1  0  0  0  0  0999 V2000
    2.5357   -3.6598    0.0000 O   0  0  0  0  0  0  0  0  0  0  0  0
    7.9288   -0.6074    0.0000 C   0  0  1  0  0  0  0  0  0  0  0  0
    7.9288   -1.6074    0.0000 C   0  0  2  0  0  0  0  0  0  0  0  0
    8.8750   -0.3027    0.0000 C   0  0  2  0  0  0  0  0  0  0  0  0
    6.1968   -1.6074    0.0000 C   0  0  1  0  0  0  0  0  0  0  0  0
    7.0628   -0.1074    0.0000 C   0  0  0  0  0  0  0  0  0  0  0  0
    7.0628   -2.1074    0.0000 C   0  0  0  0  0  0  0  0  0  0  0  0
    8.8750   -1.9122    0.0000 C   0  0  0  0  0  0  0  0  0  0  0  0
    5.2868   -2.1143    0.0000 C   0  0  2  0  0  0  0  0  0  0  0  0
    9.4586   -1.1074    0.0000 C   0  0  0  0  0  0  0  0  0  0  0  0
    6.1968   -0.6074    0.0000 C   0  0  0  0  0  0  0  0  0  0  0  0
    7.9288    0.3926    0.0000 C   0  0  0  0  0  0  0  0  0  0  0  0
    9.1857    0.6478    0.0000 C   0  0  2  0  0  0  0  0  0  0  0  0
    5.2787   -3.1559    0.0000 C   0  0  0  0  0  0  0  0  0  0  0  0
    4.3599   -1.5502    0.0000 C   0  0  0  0  0  0  0  0  0  0  0  0
    7.0789   -3.1489    0.0000 C   0  0  0  0  0  0  0  0  0  0  0  0
    5.2945   -1.1143    0.0000 C   0  0  0  0  0  0  0  0  0  0  0  0
    6.1808   -3.6767    0.0000 C   0  0  0  0  0  0  0  0  0  0  0  0
    4.3433   -3.7056    0.0000 C   0  0  0  0  0  0  0  0  0  0  0  0
    3.4120   -2.0781    0.0000 C   0  0  0  0  0  0  0  0  0  0  0  0
    3.4037   -3.1631    0.0000 C   0  0  2  0  0  0  0  0  0  0  0  0
    8.5179    1.3921    0.0000 C   0  0  0  0  0  0  0  0  0  0  0  0
   10.1642    0.8540    0.0000 C   0  0  0  0  0  0  0  0  0  0  0  0
   10.4749    1.8046    0.0000 C   0  0  0  0  0  0  0  0  0  0  0  0
   11.4534    2.0108    0.0000 C   0  0  1  0  0  0  0  0  0  0  0  0
   11.7640    2.9613    0.0000 C   0  0  0  0  0  0  0  0  0  0  0  0
   12.1212    1.2665    0.0000 C   0  0  0  0  0  0  0  0  0  0  0  0
   12.7425    3.1675    0.0000 C   0  0  0  0  0  0  0  0  0  0  0  0
   11.0962    3.7056    0.0000 C   0  0  0  0  0  0  0  0  0  0  0  0
 21  1  1  1  0  0  0
  2  3  1  0  0  0  0
  2  4  1  0  0  0  0
  2  6  1  0  0  0  0
  2 12  1  1  0  0  0
  3  7  1  0  0  0  0
  3  8  1  0  0  0  0
  4 10  1  0  0  0  0
  4 13  1  0  0  0  0
  5  7  1  0  0  0  0
  5  9  1  0  0  0  0
  5 11  1  0  0  0  0
  6 11  1  0  0  0  0
  7 16  2  0  0  0  0
  8 10  1  0  0  0  0
  9 14  1  0  0  0  0
  9 15  1  0  0  0  0
  9 17  1  1  0  0  0
 13 22  1  6  0  0  0
 13 23  1  0  0  0  0
 14 18  2  0  0  0  0
 14 19  1  0  0  0  0
 15 20  1  0  0  0  0
 16 18  1  0  0  0  0
 19 21  1  0  0  0  0
 20 21  1  0  0  0  0
 23 24  2  3  0  0  0
 24 25  1  0  0  0  0
 25 26  1  0  0  0  0
 25 27  1  1  0  0  0
 26 28  1  0  0  0  0
 26 29  1  0  0  0  0
M  END
> <PUBCHEM_COMPOUND_CID>
439550

> <PUBCHEM_COMPOUND_CANONICALIZED>
1

> <PUBCHEM_CACTVS_COMPLEXITY>
712

> <PUBCHEM_CACTVS_HBOND_ACCEPTOR>
1

> <PUBCHEM_CACTVS_HBOND_DONOR>
1

> <PUBCHEM_CACTVS_ROTATABLE_BOND>
4

> <PUBCHEM_CACTVS_SUBSKEYS>
AAADcfB4IAAAAAAAAAAAAAAAAAAAAYAAAAAwYIAAAAAAAGCAAAAAGgAACAAADxSggAICAAAAAgCAAiBCAAAAAAAgAAAICAAAAAgIEAIAAQAAQAAEwAAIgAOAwPAPgAAAAAAAAADAAAQAACAAAQAACAAAAA==

> <PUBCHEM_IUPAC_OPENEYE_NAME>
(3~{S},9~{S},10~{R},13~{R},14~{R},17~{R})-10,13-dimethyl-17-[(1~{R},4~{R})-1,4,5-trimethylhex-2-enyl]-2,3,4,9,11,12,14,15,16,17-decahydro-1~{H}-cyclopenta[a]phenanthren-3-ol

> <PUBCHEM_IUPAC_CAS_NAME>
(3~{S},9~{S},10~{R},13~{R},14~{R},17~{R})-17-[(2~{R},5~{R})-5,6-dimethylhept-3-en-2-yl]-10,13-dimethyl-2,3,4,9,11,12,14,15,16,17-decahydro-1~{H}-cyclopenta[a]phenanthren-3-ol

> <PUBCHEM_IUPAC_NAME>
(3~{S},9~{S},10~{R},13~{R},14~{R},17~{R})-17-[(2~{R},5~{R})-5,6-dimethylhept-3-en-2-yl]-10,13-dimethyl-2,3,4,9,11,12,14,15,16,17-decahydro-1~{H}-cyclopenta[a]phenanthren-3-ol

> <PUBCHEM_IUPAC_SYSTEMATIC_NAME>
(3~{S},9~{S},10~{R},13~{R},14~{R},17~{R})-17-[(2~{R},5~{R})-5,6-dimethylhept-3-en-2-yl]-10,13-dimethyl-2,3,4,9,11,12,14,15,16,17-decahydro-1~{H}-cyclopenta[a]phenanthren-3-ol

> <PUBCHEM_IUPAC_TRADITIONAL_NAME>
(3~{S},9~{S},10~{R},13~{R},14~{R},17~{R})-10,13-dimethyl-17-[(1~{R},4~{R})-1,4,5-trimethylhex-2-enyl]-2,3,4,9,11,12,14,15,16,17-decahydro-1~{H}-cyclopenta[a]phenanthren-3-ol

> <PUBCHEM_IUPAC_INCHI>
InChI=1S/C28H44O/c1-18(2)19(3)7-8-20(4)24-11-12-25-23-10-9-21-17-22(29)13-15-27(21,5)26(23)14-16-28(24,25)6/h7-10,18-20,22,24-26,29H,11-17H2,1-6H3/t19-,20+,22-,24+,25-,26-,27-,28+/m0/s1

> <PUBCHEM_IUPAC_INCHIKEY>
DNVPQKQSNYMLRS-VVQHAZRASA-N

> <PUBCHEM_XLOGP3_AA>
7.4

> <PUBCHEM_EXACT_MASS>
396.339

> <PUBCHEM_MOLECULAR_FORMULA>
C28H44O

> <PUBCHEM_MOLECULAR_WEIGHT>
396.659

> <PUBCHEM_OPENEYE_CAN_SMILES>
CC(C)C(C)C=CC(C)C1CCC2C1(CCC3C2=CC=C4C3(CCC(C4)O)C)C

> <PUBCHEM_OPENEYE_ISO_SMILES>
C[C@H](C=C[C@H](C)C(C)C)[C@H]1CC[C@@H]2[C@@]1(CC[C@H]3C2=CC=C4[C@@]3(CC[C@@H](C4)O)C)C

> <PUBCHEM_CACTVS_TPSA>
20.2

> <PUBCHEM_MONOISOTOPIC_WEIGHT>
396.339

> <PUBCHEM_TOTAL_CHARGE>
0

> <PUBCHEM_HEAVY_ATOM_COUNT>
29

> <PUBCHEM_ATOM_DEF_STEREO_COUNT>
8

> <PUBCHEM_ATOM_UDEF_STEREO_COUNT>
0

> <PUBCHEM_BOND_DEF_STEREO_COUNT>
0

> <PUBCHEM_BOND_UDEF_STEREO_COUNT>
1

> <PUBCHEM_ISOTOPIC_ATOM_COUNT>
0

> <PUBCHEM_COMPONENT_COUNT>
1

> <PUBCHEM_CACTVS_TAUTO_COUNT>
-1

> <PUBCHEM_COORDINATE_TYPE>
1
5
255

> <PUBCHEM_BONDANNOTATIONS>
21  1  5
13  22  6
2  12  5
23  24  1
25  27  5
3  30  6
4  31  6
5  32  6
9  17  5

$$$$
7674
  -OEChem-02061913072D

  9  9  0     0  0  0  0  0  0999 V2000
    2.8660    0.7500    0.0000 O   0  0  0  0  0  0  0  0  0  0  0  0
    2.8660   -0.2500    0.0000 C   0  0  0  0  0  0  0  0  0  0  0  0
    3.7320    1.2500    0.0000 C   0  0  0  0  0  0  0  0  0  0  0  0
    2.0000   -0.7500    0.0000 C   0  0  0  0  0  0  0  0  0  0  0  0
    3.7320   -0.7500    0.0000 C   0  0  0  0  0  0  0  0  0  0  0  0
    3.7320    2.2500    0.0000 C   0  0  0  0  0  0  0  0  0  0  0  0
    2.0000   -1.7500    0.0000 C   0  0  0  0  0  0  0  0  0  0  0  0
    3.7320   -1.7500    0.0000 C   0  0  0  0  0  0  0  0  0  0  0  0
    2.8660   -2.2500    0.0000 C   0  0  0  0  0  0  0  0  0  0  0  0
  1  2  1  0  0  0  0
  1  3  1  0  0  0  0
  2  4  2  0  0  0  0
  2  5  1  0  0  0  0
  3  6  1  0  0  0  0
  4  7  1  0  0  0  0
  5  8  2  0  0  0  0
  7  9  2  0  0  0  0
  8  9  1  0  0  0  0
M  END
> <PUBCHEM_COMPOUND_CID>
7674

> <PUBCHEM_COMPOUND_CANONICALIZED>
1

> <PUBCHEM_CACTVS_COMPLEXITY>
65

> <PUBCHEM_CACTVS_HBOND_ACCEPTOR>
1

> <PUBCHEM_CACTVS_HBOND_DONOR>
0

> <PUBCHEM_CACTVS_ROTATABLE_BOND>
2

> <PUBCHEM_CACTVS_SUBSKEYS>
AAADccBwIAAAAAAAAAAAAAAAAAAAAAAAAAAwAAAAAAAAAAABAAAAGgAAAAAACASgkAIyBoAABACAACBCAAACCAAgIAAIiAAGCIgMJiKEMRqCOCCkwBEIqAeAQAAAAAAAAAAAAAAAAAAAAAAAAAAAAAAAAA==

> <PUBCHEM_IUPAC_OPENEYE_NAME>
ethoxybenzene

> <PUBCHEM_IUPAC_CAS_NAME>
ethoxybenzene

> <PUBCHEM_IUPAC_NAME>
ethoxybenzene

> <PUBCHEM_IUPAC_SYSTEMATIC_NAME>
ethoxybenzene

> <PUBCHEM_IUPAC_TRADITIONAL_NAME>
phenetole

> <PUBCHEM_IUPAC_INCHI>
InChI=1S/C8H10O/c1-2-9-8-6-4-3-5-7-8/h3-7H,2H2,1H3

> <PUBCHEM_IUPAC_INCHIKEY>
DLRJIFUOBPOJNS-UHFFFAOYSA-N

> <PUBCHEM_XLOGP3>
2.5

> <PUBCHEM_EXACT_MASS>
122.073

> <PUBCHEM_MOLECULAR_FORMULA>
C8H10O

> <PUBCHEM_MOLECULAR_WEIGHT>
122.167

> <PUBCHEM_OPENEYE_CAN_SMILES>
CCOC1=CC=CC=C1

> <PUBCHEM_OPENEYE_ISO_SMILES>
CCOC1=CC=CC=C1

> <PUBCHEM_CACTVS_TPSA>
9.2

> <PUBCHEM_MONOISOTOPIC_WEIGHT>
122.073

> <PUBCHEM_TOTAL_CHARGE>
0

> <PUBCHEM_HEAVY_ATOM_COUNT>
9

> <PUBCHEM_ATOM_DEF_STEREO_COUNT>
0

> <PUBCHEM_ATOM_UDEF_STEREO_COUNT>
0

> <PUBCHEM_BOND_DEF_STEREO_COUNT>
0

> <PUBCHEM_BOND_UDEF_STEREO_COUNT>
0

> <PUBCHEM_ISOTOPIC_ATOM_COUNT>
0

> <PUBCHEM_COMPONENT_COUNT>
1

> <PUBCHEM_CACTVS_TAUTO_COUNT>
-1

> <PUBCHEM_COORDINATE_TYPE>
1
5
255

> <PUBCHEM_BONDANNOTATIONS>
2  4  8
2  5  8
4  7  8
5  8  8
7  9  8
8  9  8

$$$$
5463081
  -OEChem-02061913342D

  9 10  0     1  0  0  0  0  0999 V2000
    4.6718    1.1504    0.0000 C   0  0  3  0  0  0  0  0  0  0  0  0
    4.4130    0.1845    0.0000 C   0  0  3  0  0  0  0  0  0  0  0  0
    3.9352    2.1330    0.0000 C   0  0  0  0  0  0  0  0  0  0  0  0
    2.6982    0.5321    0.0000 C   0  0  0  0  0  0  0  0  0  0  0  0
    3.0403   -0.4076    0.0000 C   0  0  0  0  0  0  0  0  0  0  0  0
    6.0707    0.6416    0.0000 C   0  0  0  0  0  0  0  0  0  0  0  0
    5.8119   -0.3243    0.0000 C   0  0  0  0  0  0  0  0  0  0  0  0
    2.6176   -1.3139    0.0000 C   0  0  0  0  0  0  0  0  0  0  0  0
    3.1912   -2.1330    0.0000 C   0  0  0  0  0  0  0  0  0  0  0  0
  1  3  1  0  0  0  0
  1  4  1  0  0  0  0
  1  6  1  0  0  0  0
  2  3  1  0  0  0  0
  2  5  1  0  0  0  0
  2  7  1  0  0  0  0
  4  5  1  0  0  0  0
  5  8  2  0  0  0  0
  6  7  2  0  0  0  0
  8  9  1  0  0  0  0
M  END
> <PUBCHEM_COMPOUND_CID>
5463081

> <PUBCHEM_COMPOUND_CANONICALIZED>
1

> <PUBCHEM_CACTVS_COMPLEXITY>
175

> <PUBCHEM_CACTVS_HBOND_ACCEPTOR>
0

> <PUBCHEM_CACTVS_HBOND_DONOR>
0

> <PUBCHEM_CACTVS_ROTATABLE_BOND>
0

> <PUBCHEM_CACTVS_SUBSKEYS>
AAADccBwAAAAAAAAAAAAAAAAAAAAAYIAAAAgAAAAAAAAAAAAAAAAGAAAAAAADQCAAAACAAAAAACAAiBCAAAAAAAgAAAICAAAAAgAAAIAAQAAAAAAgAAIAAMAAAAOAAAAAAAAAAAAAAAAAAAAAQAAAAAAAA==

> <PUBCHEM_IUPAC_OPENEYE_NAME>
(5~{Z})-5-ethylidenebicyclo[2.2.1]hept-2-ene

> <PUBCHEM_IUPAC_CAS_NAME>
(5~{Z})-5-ethylidenebicyclo[2.2.1]hept-2-ene

> <PUBCHEM_IUPAC_NAME>
(5~{Z})-5-ethylidenebicyclo[2.2.1]hept-2-ene

> <PUBCHEM_IUPAC_SYSTEMATIC_NAME>
(5~{Z})-5-ethylidenebicyclo[2.2.1]hept-2-ene

> <PUBCHEM_IUPAC_TRADITIONAL_NAME>
(5~{Z})-5-ethylidenebicyclo[2.2.1]hept-2-ene

> <PUBCHEM_IUPAC_INCHI>
InChI=1S/C9H12/c1-2-8-5-7-3-4-9(8)6-7/h2-4,7,9H,5-6H2,1H3/b8-2-

> <PUBCHEM_IUPAC_INCHIKEY>
OJOWICOBYCXEKR-WAPJZHGLSA-N

> <PUBCHEM_XLOGP3_AA>
2.2

> <PUBCHEM_EXACT_MASS>
120.094

> <PUBCHEM_MOLECULAR_FORMULA>
C9H12

> <PUBCHEM_MOLECULAR_WEIGHT>
120.195

> <PUBCHEM_OPENEYE_CAN_SMILES>
CC=C1CC2CC1C=C2

> <PUBCHEM_OPENEYE_ISO_SMILES>
C/C=C\1/CC2CC1C=C2

> <PUBCHEM_CACTVS_TPSA>
0

> <PUBCHEM_MONOISOTOPIC_WEIGHT>
120.094

> <PUBCHEM_TOTAL_CHARGE>
0

> <PUBCHEM_HEAVY_ATOM_COUNT>
9

> <PUBCHEM_ATOM_DEF_STEREO_COUNT>
0

> <PUBCHEM_ATOM_UDEF_STEREO_COUNT>
2

> <PUBCHEM_BOND_DEF_STEREO_COUNT>
1

> <PUBCHEM_BOND_UDEF_STEREO_COUNT>
0

> <PUBCHEM_ISOTOPIC_ATOM_COUNT>
0

> <PUBCHEM_COMPONENT_COUNT>
1

> <PUBCHEM_CACTVS_TAUTO_COUNT>
-1

> <PUBCHEM_COORDINATE_TYPE>
1
5
255

> <PUBCHEM_BONDANNOTATIONS>
1  3  3
2  3  3

$$$$
1057
  -OEChem-02061913062D

  9  9  0     0  0  0  0  0  0999 V2000
    4.2690    1.3450    0.0000 O   0  0  0  0  0  0  0  0  0  0  0  0
    2.5369    0.3450    0.0000 O   0  0  0  0  0  0  0  0  0  0  0  0
    6.0010    0.3450    0.0000 O   0  0  0  0  0  0  0  0  0  0  0  0
    4.2690    0.3450    0.0000 C   0  0  0  0  0  0  0  0  0  0  0  0
    3.4030   -0.1550    0.0000 C   0  0  0  0  0  0  0  0  0  0  0  0
    5.1350   -0.1550    0.0000 C   0  0  0  0  0  0  0  0  0  0  0  0
    3.4030   -1.1550    0.0000 C   0  0  0  0  0  0  0  0  0  0  0  0
    5.1350   -1.1550    0.0000 C   0  0  0  0  0  0  0  0  0  0  0  0
    4.2690   -1.6550    0.0000 C   0  0  0  0  0  0  0  0  0  0  0  0
  1  4  1  0  0  0  0
  2  5  1  0  0  0  0
  3  6  1  0  0  0  0
  4  5  2  0  0  0  0
  4  6  1  0  0  0  0
  5  7  1  0  0  0  0
  6  8  2  0  0  0  0
  7  9  2  0  0  0  0
  8  9  1  0  0  0  0
M  END
> <PUBCHEM_COMPOUND_CID>
1057

> <PUBCHEM_COMPOUND_CANONICALIZED>
1

> <PUBCHEM_CACTVS_COMPLEXITY>
84.3

> <PUBCHEM_CACTVS_HBOND_ACCEPTOR>
3

> <PUBCHEM_CACTVS_HBOND_DONOR>
3

> <PUBCHEM_CACTVS_ROTATABLE_BOND>
0

> <PUBCHEM_CACTVS_SUBSKEYS>
AAADcYBgMAAAAAAAAAAAAAAAAAAAAAAAAAAwAAAAAAAAAAABAAAAGgAACAAACASAkAAwBoAAAgCAACBCAAACAAAgIAAIiAAGiIgJJyKCERKAcAElwBUJmAeAYAQAAAAACAAAQAAAAAAQAACAAAAAAAAAAA==

> <PUBCHEM_IUPAC_OPENEYE_NAME>
benzene-1,2,3-triol

> <PUBCHEM_IUPAC_CAS_NAME>
benzene-1,2,3-triol

> <PUBCHEM_IUPAC_NAME>
benzene-1,2,3-triol

> <PUBCHEM_IUPAC_SYSTEMATIC_NAME>
benzene-1,2,3-triol

> <PUBCHEM_IUPAC_TRADITIONAL_NAME>
pyrogallol

> <PUBCHEM_IUPAC_INCHI>
InChI=1S/C6H6O3/c7-4-2-1-3-5(8)6(4)9/h1-3,7-9H

> <PUBCHEM_IUPAC_INCHIKEY>
WQGWDDDVZFFDIG-UHFFFAOYSA-N

> <PUBCHEM_XLOGP3>
0.5

> <PUBCHEM_EXACT_MASS>
126.032

> <PUBCHEM_MOLECULAR_FORMULA>
C6H6O3

> <PUBCHEM_MOLECULAR_WEIGHT>
126.111

> <PUBCHEM_OPENEYE_CAN_SMILES>
C1=CC(=C(C(=C1)O)O)O

> <PUBCHEM_OPENEYE_ISO_SMILES>
C1=CC(=C(C(=C1)O)O)O

> <PUBCHEM_CACTVS_TPSA>
60.7

> <PUBCHEM_MONOISOTOPIC_WEIGHT>
126.032

> <PUBCHEM_TOTAL_CHARGE>
0

> <PUBCHEM_HEAVY_ATOM_COUNT>
9

> <PUBCHEM_ATOM_DEF_STEREO_COUNT>
0

> <PUBCHEM_ATOM_UDEF_STEREO_COUNT>
0

> <PUBCHEM_BOND_DEF_STEREO_COUNT>
0

> <PUBCHEM_BOND_UDEF_STEREO_COUNT>
0

> <PUBCHEM_ISOTOPIC_ATOM_COUNT>
0

> <PUBCHEM_COMPONENT_COUNT>
1

> <PUBCHEM_CACTVS_TAUTO_COUNT>
-1

> <PUBCHEM_COORDINATE_TYPE>
1
5
255

> <PUBCHEM_BONDANNOTATIONS>
4  5  8
4  6  8
5  7  8
6  8  8
7  9  8
8  9  8

$$$$
5315257
  -OEChem-02061913342D

 29 31  0     1  0  0  0  0  0999 V2000
    2.0000   -4.8465    0.0000 O   0  0  0  0  0  0  0  0  0  0  0  0
    5.4641    1.1535    0.0000 C   0  0  3  0  0  0  0  0  0  0  0  0
    6.4103    1.4582    0.0000 C   0  0  3  0  0  0  0  0  0  0  0  0
    5.4641    0.1535    0.0000 C   0  0  3  0  0  0  0  0  0  0  0  0
    6.9939    0.6535    0.0000 C   0  0  0  0  0  0  0  0  0  0  0  0
    6.4103   -0.1512    0.0000 C   0  0  0  0  0  0  0  0  0  0  0  0
    4.5981    1.6535    0.0000 C   0  0  0  0  0  0  0  0  0  0  0  0
    6.7210    2.4087    0.0000 C   0  0  3  0  0  0  0  0  0  0  0  0
    4.5981   -0.3465    0.0000 C   0  0  0  0  0  0  0  0  0  0  0  0
    5.4641    2.1535    0.0000 C   0  0  0  0  0  0  0  0  0  0  0  0
    3.7320    1.1535    0.0000 C   0  0  0  0  0  0  0  0  0  0  0  0
    3.7320    0.1535    0.0000 C   0  0  0  0  0  0  0  0  0  0  0  0
    6.0531    3.1530    0.0000 C   0  0  0  0  0  0  0  0  0  0  0  0
    7.6995    2.6150    0.0000 C   0  0  0  0  0  0  0  0  0  0  0  0
    4.5981   -1.3465    0.0000 C   0  0  0  0  0  0  0  0  0  0  0  0
    8.0102    3.5655    0.0000 C   0  0  0  0  0  0  0  0  0  0  0  0
    3.7320   -1.8465    0.0000 C   0  0  0  0  0  0  0  0  0  0  0  0
    8.9887    3.7717    0.0000 C   0  0  3  0  0  0  0  0  0  0  0  0
    3.7320   -2.8465    0.0000 C   0  0  0  0  0  0  0  0  0  0  0  0
    9.2993    4.7222    0.0000 C   0  0  0  0  0  0  0  0  0  0  0  0
    2.8660   -3.3465    0.0000 C   0  0  0  0  0  0  0  0  0  0  0  0
    9.6565    3.0274    0.0000 C   0  0  0  0  0  0  0  0  0  0  0  0
    4.5981   -3.3465    0.0000 C   0  0  0  0  0  0  0  0  0  0  0  0
    2.8660   -4.3465    0.0000 C   0  0  3  0  0  0  0  0  0  0  0  0
    4.5981   -4.3465    0.0000 C   0  0  0  0  0  0  0  0  0  0  0  0
    3.7320   -4.8465    0.0000 C   0  0  0  0  0  0  0  0  0  0  0  0
   10.2778    4.9284    0.0000 C   0  0  0  0  0  0  0  0  0  0  0  0
    8.6315    5.4665    0.0000 C   0  0  0  0  0  0  0  0  0  0  0  0
    5.4641   -2.8465    0.0000 C   0  0  0  0  0  0  0  0  0  0  0  0
  1 24  1  0  0  0  0
  2  3  1  0  0  0  0
  2  4  1  0  0  0  0
  2  7  1  0  0  0  0
  2 10  1  0  0  0  0
  3  5  1  0  0  0  0
  3  8  1  0  0  0  0
  4  6  1  0  0  0  0
  4  9  1  0  0  0  0
  5  6  1  0  0  0  0
  7 11  1  0  0  0  0
  8 13  1  0  0  0  0
  8 14  1  0  0  0  0
  9 12  1  0  0  0  0
  9 15  2  0  0  0  0
 11 12  1  0  0  0  0
 14 16  2  0  0  0  0
 15 17  1  0  0  0  0
 16 18  1  0  0  0  0
 17 19  2  0  0  0  0
 18 20  1  0  0  0  0
 18 22  1  0  0  0  0
 19 21  1  0  0  0  0
 19 23  1  0  0  0  0
 20 27  1  0  0  0  0
 20 28  1  0  0  0  0
 21 24  1  0  0  0  0
 23 25  1  0  0  0  0
 23 29  2  0  0  0  0
 24 26  1  0  0  0  0
 25 26  1  0  0  0  0
M  END
> <PUBCHEM_COMPOUND_CID>
5315257

> <PUBCHEM_COMPOUND_CANONICALIZED>
1

> <PUBCHEM_CACTVS_COMPLEXITY>
678

> <PUBCHEM_CACTVS_HBOND_ACCEPTOR>
1

> <PUBCHEM_CACTVS_HBOND_DONOR>
1

> <PUBCHEM_CACTVS_ROTATABLE_BOND>
5

> <PUBCHEM_CACTVS_SUBSKEYS>
AAADcfB4IAAAAAAAAAAAAAAAAAAAAYAAAAAwYAAAAAAAAGAAAAAAGgAACAAADxSggAICAAAAAgCAAiBCAAAAAAAgAAAICAAAAAgIEAIAAQAAQAAEwAAIgAOAwMAPgAAAAAAAAAAAAAAAACAAAQAACAAAAA==

> <PUBCHEM_IUPAC_OPENEYE_NAME>
(3~{Z})-3-[(2~{E})-2-[7~{a}-methyl-1-[(~{E})-1,4,5-trimethylhex-2-enyl]-2,3,3~{a},5,6,7-hexahydro-1~{H}-inden-4-ylidene]ethylidene]-4-methylene-cyclohexanol

> <PUBCHEM_IUPAC_CAS_NAME>
(3~{Z})-3-[(2~{E})-2-[1-[(~{E})-5,6-dimethylhept-3-en-2-yl]-7~{a}-methyl-2,3,3~{a},5,6,7-hexahydro-1~{H}-inden-4-ylidene]ethylidene]-4-methylene-1-cyclohexanol

> <PUBCHEM_IUPAC_NAME>
(3~{Z})-3-[(2~{E})-2-[1-[(~{E})-5,6-dimethylhept-3-en-2-yl]-7~{a}-methyl-2,3,3~{a},5,6,7-hexahydro-1~{H}-inden-4-ylidene]ethylidene]-4-methylidenecyclohexan-1-ol

> <PUBCHEM_IUPAC_SYSTEMATIC_NAME>
(3~{Z})-3-[(2~{E})-2-[1-[(~{E})-5,6-dimethylhept-3-en-2-yl]-7~{a}-methyl-2,3,3~{a},5,6,7-hexahydro-1~{H}-inden-4-ylidene]ethylidene]-4-methylidene-cyclohexan-1-ol

> <PUBCHEM_IUPAC_TRADITIONAL_NAME>
(3~{Z})-3-[(2~{E})-2-[7~{a}-methyl-1-[(~{E})-1,4,5-trimethylhex-2-enyl]-2,3,3~{a},5,6,7-hexahydro-1~{H}-inden-4-ylidene]ethylidene]-4-methylene-cyclohexanol

> <PUBCHEM_IUPAC_INCHI>
InChI=1S/C28H44O/c1-19(2)20(3)9-10-22(5)26-15-16-27-23(8-7-17-28(26,27)6)12-13-24-18-25(29)14-11-21(24)4/h9-10,12-13,19-20,22,25-27,29H,4,7-8,11,14-18H2,1-3,5-6H3/b10-9+,23-12+,24-13-

> <PUBCHEM_IUPAC_INCHIKEY>
MECHNRXZTMCUDQ-AAGLSAJLSA-N

> <PUBCHEM_XLOGP3_AA>
7.4

> <PUBCHEM_EXACT_MASS>
396.339

> <PUBCHEM_MOLECULAR_FORMULA>
C28H44O

> <PUBCHEM_MOLECULAR_WEIGHT>
396.659

> <PUBCHEM_OPENEYE_CAN_SMILES>
CC(C)C(C)C=CC(C)C1CCC2C1(CCCC2=CC=C3CC(CCC3=C)O)C

> <PUBCHEM_OPENEYE_ISO_SMILES>
CC(C)C(C)/C=C/C(C)C1CCC\2C1(CCC/C2=C\C=C/3\CC(CCC3=C)O)C

> <PUBCHEM_CACTVS_TPSA>
20.2

> <PUBCHEM_MONOISOTOPIC_WEIGHT>
396.339

> <PUBCHEM_TOTAL_CHARGE>
0

> <PUBCHEM_HEAVY_ATOM_COUNT>
29

> <PUBCHEM_ATOM_DEF_STEREO_COUNT>
0

> <PUBCHEM_ATOM_UDEF_STEREO_COUNT>
6

> <PUBCHEM_BOND_DEF_STEREO_COUNT>
3

> <PUBCHEM_BOND_UDEF_STEREO_COUNT>
0

> <PUBCHEM_ISOTOPIC_ATOM_COUNT>
0

> <PUBCHEM_COMPONENT_COUNT>
1

> <PUBCHEM_CACTVS_TAUTO_COUNT>
-1

> <PUBCHEM_COORDINATE_TYPE>
1
5
255

> <PUBCHEM_BONDANNOTATIONS>
18  53  3
2  10  3
24  60  3
3  30  3
4  31  3
8  38  3

$$$$
134694848
  -OEChem-02061915122D

 29 31  0     1  0  0  0  0  0999 V2000
    2.0000   -4.8465    0.0000 O   0  0  0  0  0  0  0  0  0  0  0  0
    5.4641    1.1535    0.0000 C   0  0  2  0  0  0  0  0  0  0  0  0
    6.4103    1.4582    0.0000 C   0  0  2  0  0  0  0  0  0  0  0  0
    5.4641    0.1535    0.0000 C   0  0  1  0  0  0  0  0  0  0  0  0
    6.9939    0.6535    0.0000 C   0  0  0  0  0  0  0  0  0  0  0  0
    6.4103   -0.1512    0.0000 C   0  0  0  0  0  0  0  0  0  0  0  0
    4.5981    1.6535    0.0000 C   0  0  0  0  0  0  0  0  0  0  0  0
    6.7210    2.4087    0.0000 C   0  0  3  0  0  0  0  0  0  0  0  0
    4.5981   -0.3465    0.0000 C   0  0  0  0  0  0  0  0  0  0  0  0
    5.4641    2.1535    0.0000 C   0  0  0  0  0  0  0  0  0  0  0  0
    3.7320    1.1535    0.0000 C   0  0  0  0  0  0  0  0  0  0  0  0
    3.7320    0.1535    0.0000 C   0  0  0  0  0  0  0  0  0  0  0  0
    6.0531    3.1530    0.0000 C   0  0  0  0  0  0  0  0  0  0  0  0
    7.6995    2.6150    0.0000 C   0  0  0  0  0  0  0  0  0  0  0  0
    4.5981   -1.3465    0.0000 C   0  0  0  0  0  0  0  0  0  0  0  0
    8.0102    3.5655    0.0000 C   0  0  0  0  0  0  0  0  0  0  0  0
    3.7320   -1.8465    0.0000 C   0  0  0  0  0  0  0  0  0  0  0  0
    8.9887    3.7717    0.0000 C   0  0  3  0  0  0  0  0  0  0  0  0
    3.7320   -2.8465    0.0000 C   0  0  0  0  0  0  0  0  0  0  0  0
    9.2993    4.7222    0.0000 C   0  0  0  0  0  0  0  0  0  0  0  0
    2.8660   -3.3465    0.0000 C   0  0  0  0  0  0  0  0  0  0  0  0
    9.6565    3.0274    0.0000 C   0  0  0  0  0  0  0  0  0  0  0  0
    4.5981   -3.3465    0.0000 C   0  0  0  0  0  0  0  0  0  0  0  0
    2.8660   -4.3465    0.0000 C   0  0  2  0  0  0  0  0  0  0  0  0
    4.5981   -4.3465    0.0000 C   0  0  0  0  0  0  0  0  0  0  0  0
    3.7320   -4.8465    0.0000 C   0  0  0  0  0  0  0  0  0  0  0  0
   10.2778    4.9284    0.0000 C   0  0  0  0  0  0  0  0  0  0  0  0
    8.6315    5.4665    0.0000 C   0  0  0  0  0  0  0  0  0  0  0  0
    5.4641   -2.8465    0.0000 C   0  0  0  0  0  0  0  0  0  0  0  0
 24  1  1  6  0  0  0
  2  3  1  0  0  0  0
  2  4  1  0  0  0  0
  2  7  1  0  0  0  0
  2 10  1  1  0  0  0
  3  5  1  0  0  0  0
  3  8  1  1  0  0  0
  4  6  1  0  0  0  0
  4  9  1  0  0  0  0
  5  6  1  0  0  0  0
  7 11  1  0  0  0  0
  8 13  1  0  0  0  0
  8 14  1  0  0  0  0
  9 12  1  0  0  0  0
  9 15  2  3  0  0  0
 11 12  1  0  0  0  0
 14 16  2  0  0  0  0
 15 17  1  0  0  0  0
 16 18  1  0  0  0  0
 17 19  2  0  0  0  0
 18 20  1  0  0  0  0
 18 22  1  0  0  0  0
 19 21  1  0  0  0  0
 19 23  1  0  0  0  0
 20 27  1  0  0  0  0
 20 28  1  0  0  0  0
 21 24  1  0  0  0  0
 23 25  1  0  0  0  0
 23 29  2  0  0  0  0
 24 26  1  0  0  0  0
 25 26  1  0  0  0  0
M  END
> <PUBCHEM_COMPOUND_CID>
134694848

> <PUBCHEM_COMPOUND_CANONICALIZED>
1

> <PUBCHEM_CACTVS_COMPLEXITY>
678

> <PUBCHEM_CACTVS_HBOND_ACCEPTOR>
1

> <PUBCHEM_CACTVS_HBOND_DONOR>
1

> <PUBCHEM_CACTVS_ROTATABLE_BOND>
5

> <PUBCHEM_CACTVS_SUBSKEYS>
AAADcfB4IAAAAAAAAAAAAAAAAAAAAYAAAAAwYAAAAAAAAGAAAAAAGgAACAAADxSggAICAAAAAgCAAiBCAAAAAAAgAAAICAAAAAgIEAIAAQAAQAAEwAAIgAOAwMAPgAAAAAAAAAAAAAAAACAAAQAACAAAAA==

> <PUBCHEM_IUPAC_OPENEYE_NAME>
(1~{S},3~{Z})-3-[2-[(1~{R},3~{a}~{S},7~{a}~{R})-7~{a}-methyl-1-[(~{E})-1,4,5-trimethylhex-2-enyl]-2,3,3~{a},5,6,7-hexahydro-1~{H}-inden-4-ylidene]ethylidene]-4-methylene-cyclohexanol

> <PUBCHEM_IUPAC_CAS_NAME>
(1~{S},3~{Z})-3-[2-[(1~{R},3~{a}~{S},7~{a}~{R})-1-[(~{E})-5,6-dimethylhept-3-en-2-yl]-7~{a}-methyl-2,3,3~{a},5,6,7-hexahydro-1~{H}-inden-4-ylidene]ethylidene]-4-methylene-1-cyclohexanol

> <PUBCHEM_IUPAC_NAME>
(1~{S},3~{Z})-3-[2-[(1~{R},3~{a}~{S},7~{a}~{R})-1-[(~{E})-5,6-dimethylhept-3-en-2-yl]-7~{a}-methyl-2,3,3~{a},5,6,7-hexahydro-1~{H}-inden-4-ylidene]ethylidene]-4-methylidenecyclohexan-1-ol

> <PUBCHEM_IUPAC_SYSTEMATIC_NAME>
(1~{S},3~{Z})-3-[2-[(1~{R},3~{a}~{S},7~{a}~{R})-1-[(~{E})-5,6-dimethylhept-3-en-2-yl]-7~{a}-methyl-2,3,3~{a},5,6,7-hexahydro-1~{H}-inden-4-ylidene]ethylidene]-4-methylidene-cyclohexan-1-ol

> <PUBCHEM_IUPAC_TRADITIONAL_NAME>
(1~{S},3~{Z})-3-[2-[(1~{R},3~{a}~{S},7~{a}~{R})-7~{a}-methyl-1-[(~{E})-1,4,5-trimethylhex-2-enyl]-2,3,3~{a},5,6,7-hexahydro-1~{H}-inden-4-ylidene]ethylidene]-4-methylene-cyclohexanol

> <PUBCHEM_IUPAC_INCHI>
InChI=1S/C28H44O/c1-19(2)20(3)9-10-22(5)26-15-16-27-23(8-7-17-28(26,27)6)12-13-24-18-25(29)14-11-21(24)4/h9-10,12-13,19-20,22,25-27,29H,4,7-8,11,14-18H2,1-3,5-6H3/b10-9+,23-12?,24-13-/t20?,22?,25-,26+,27-,28+/m0/s1

> <PUBCHEM_IUPAC_INCHIKEY>
MECHNRXZTMCUDQ-JXKTVBEBSA-N

> <PUBCHEM_XLOGP3_AA>
7.4

> <PUBCHEM_EXACT_MASS>
396.339

> <PUBCHEM_MOLECULAR_FORMULA>
C28H44O

> <PUBCHEM_MOLECULAR_WEIGHT>
396.659

> <PUBCHEM_OPENEYE_CAN_SMILES>
CC(C)C(C)C=CC(C)C1CCC2C1(CCCC2=CC=C3CC(CCC3=C)O)C

> <PUBCHEM_OPENEYE_ISO_SMILES>
CC(C)C(C)/C=C/C(C)[C@H]1CC[C@@H]2[C@@]1(CCCC2=C/C=C\3/C[C@H](CCC3=C)O)C

> <PUBCHEM_CACTVS_TPSA>
20.2

> <PUBCHEM_MONOISOTOPIC_WEIGHT>
396.339

> <PUBCHEM_TOTAL_CHARGE>
0

> <PUBCHEM_HEAVY_ATOM_COUNT>
29

> <PUBCHEM_ATOM_DEF_STEREO_COUNT>
4

> <PUBCHEM_ATOM_UDEF_STEREO_COUNT>
2

> <PUBCHEM_BOND_DEF_STEREO_COUNT>
2

> <PUBCHEM_BOND_UDEF_STEREO_COUNT>
1

> <PUBCHEM_ISOTOPIC_ATOM_COUNT>
0

> <PUBCHEM_COMPONENT_COUNT>
1

> <PUBCHEM_CACTVS_TAUTO_COUNT>
-1

> <PUBCHEM_COORDINATE_TYPE>
1
5
255

> <PUBCHEM_BONDANNOTATIONS>
24  1  6
18  22  3
2  10  5
3  8  5
4  31  6
8  13  3
9  15  1

$$$$
4947
  -OEChem-02061913062D

 15 15  0     0  0  0  0  0  0999 V2000
    3.4030   -1.1550    0.0000 O   0  0  0  0  0  0  0  0  0  0  0  0
    6.0010    2.3450    0.0000 O   0  0  0  0  0  0  0  0  0  0  0  0
    2.5369    2.3450    0.0000 O   0  0  0  0  0  0  0  0  0  0  0  0
    4.2690    3.3450    0.0000 O   0  0  0  0  0  0  0  0  0  0  0  0
    5.1350   -1.1550    0.0000 O   0  0  0  0  0  0  0  0  0  0  0  0
    2.5369   -2.6550    0.0000 C   0  0  0  0  0  0  0  0  0  0  0  0
    3.4030   -2.1550    0.0000 C   0  0  0  0  0  0  0  0  0  0  0  0
    4.2690    0.3450    0.0000 C   0  0  0  0  0  0  0  0  0  0  0  0
    3.4030    0.8450    0.0000 C   0  0  0  0  0  0  0  0  0  0  0  0
    5.1350    0.8450    0.0000 C   0  0  0  0  0  0  0  0  0  0  0  0
    4.2690   -0.6550    0.0000 C   0  0  0  0  0  0  0  0  0  0  0  0
    5.1350    1.8450    0.0000 C   0  0  0  0  0  0  0  0  0  0  0  0
    3.4030    1.8450    0.0000 C   0  0  0  0  0  0  0  0  0  0  0  0
    2.5369   -3.6550    0.0000 C   0  0  0  0  0  0  0  0  0  0  0  0
    4.2690    2.3450    0.0000 C   0  0  0  0  0  0  0  0  0  0  0  0
  1  7  1  0  0  0  0
  1 11  1  0  0  0  0
  2 12  1  0  0  0  0
  3 13  1  0  0  0  0
  4 15  1  0  0  0  0
  5 11  2  0  0  0  0
  6  7  1  0  0  0  0
  6 14  1  0  0  0  0
  8  9  2  0  0  0  0
  8 10  1  0  0  0  0
  8 11  1  0  0  0  0
  9 13  1  0  0  0  0
 10 12  2  0  0  0  0
 12 15  1  0  0  0  0
 13 15  2  0  0  0  0
M  END
> <PUBCHEM_COMPOUND_CID>
4947

> <PUBCHEM_COMPOUND_CANONICALIZED>
1

> <PUBCHEM_CACTVS_COMPLEXITY>
206

> <PUBCHEM_CACTVS_HBOND_ACCEPTOR>
5

> <PUBCHEM_CACTVS_HBOND_DONOR>
3

> <PUBCHEM_CACTVS_ROTATABLE_BOND>
4

> <PUBCHEM_CACTVS_SUBSKEYS>
AAADccBwOAAAAAAAAAAAAAAAAAAAAAAAAAAwAAAAAAAAAAABAAAAGgAACAAADASgmAIyDoAABgCIAiDSCAACAAAkIAAAiAEGiMgJJzKCNRqCcQElwBUJuYfK7DzOIAABCAAAQABAAAIQAACAAAAAAAAAAA==

> <PUBCHEM_IUPAC_OPENEYE_NAME>
propyl 3,4,5-trihydroxybenzoate

> <PUBCHEM_IUPAC_CAS_NAME>
3,4,5-trihydroxybenzoic acid propyl ester

> <PUBCHEM_IUPAC_NAME>
propyl 3,4,5-trihydroxybenzoate

> <PUBCHEM_IUPAC_SYSTEMATIC_NAME>
propyl 3,4,5-tris(oxidanyl)benzoate

> <PUBCHEM_IUPAC_TRADITIONAL_NAME>
3,4,5-trihydroxybenzoic acid propyl ester

> <PUBCHEM_IUPAC_INCHI>
InChI=1S/C10H12O5/c1-2-3-15-10(14)6-4-7(11)9(13)8(12)5-6/h4-5,11-13H,2-3H2,1H3

> <PUBCHEM_IUPAC_INCHIKEY>
ZTHYODDOHIVTJV-UHFFFAOYSA-N

> <PUBCHEM_XLOGP3>
1.8

> <PUBCHEM_EXACT_MASS>
212.068

> <PUBCHEM_MOLECULAR_FORMULA>
C10H12O5

> <PUBCHEM_MOLECULAR_WEIGHT>
212.201

> <PUBCHEM_OPENEYE_CAN_SMILES>
CCCOC(=O)C1=CC(=C(C(=C1)O)O)O

> <PUBCHEM_OPENEYE_ISO_SMILES>
CCCOC(=O)C1=CC(=C(C(=C1)O)O)O

> <PUBCHEM_CACTVS_TPSA>
87

> <PUBCHEM_MONOISOTOPIC_WEIGHT>
212.068

> <PUBCHEM_TOTAL_CHARGE>
0

> <PUBCHEM_HEAVY_ATOM_COUNT>
15

> <PUBCHEM_ATOM_DEF_STEREO_COUNT>
0

> <PUBCHEM_ATOM_UDEF_STEREO_COUNT>
0

> <PUBCHEM_BOND_DEF_STEREO_COUNT>
0

> <PUBCHEM_BOND_UDEF_STEREO_COUNT>
0

> <PUBCHEM_ISOTOPIC_ATOM_COUNT>
0

> <PUBCHEM_COMPONENT_COUNT>
1

> <PUBCHEM_CACTVS_TAUTO_COUNT>
-1

> <PUBCHEM_COORDINATE_TYPE>
1
5
255

> <PUBCHEM_BONDANNOTATIONS>
10  12  8
12  15  8
13  15  8
8  10  8
8  9  8
9  13  8

$$$$
221493
  -OEChem-02061913062D

 29 32  0     1  0  0  0  0  0999 V2000
    7.0628    1.4774    0.0000 O   0  0  0  0  0  0  0  0  0  0  0  0
    7.9506   -3.0540    0.0000 O   0  0  0  0  0  0  0  0  0  0  0  0
    2.5357   -3.0749    0.0000 O   0  0  0  0  0  0  0  0  0  0  0  0
   11.7640    3.5462    0.0000 O   0  0  0  0  0  0  0  0  0  0  0  0
   12.1212    1.8513    0.0000 O   0  0  0  0  0  0  0  0  0  0  0  0
    7.9288   -0.0226    0.0000 C   0  0  1  0  0  0  0  0  0  0  0  0
    7.9288   -1.0226    0.0000 C   0  0  2  0  0  0  0  0  0  0  0  0
    7.0628   -1.5226    0.0000 C   0  0  1  0  0  0  0  0  0  0  0  0
    6.1968   -1.0226    0.0000 C   0  0  1  0  0  0  0  0  0  0  0  0
    5.2868   -1.5294    0.0000 C   0  0  2  0  0  0  0  0  0  0  0  0
    8.8750    0.2821    0.0000 C   0  0  2  0  0  0  0  0  0  0  0  0
    7.0628    0.4774    0.0000 C   0  0  2  0  0  0  0  0  0  0  0  0
    6.1968   -0.0226    0.0000 C   0  0  0  0  0  0  0  0  0  0  0  0
    5.2787   -2.5710    0.0000 C   0  0  2  0  0  0  0  0  0  0  0  0
    8.8750   -1.3273    0.0000 C   0  0  0  0  0  0  0  0  0  0  0  0
    7.0789   -2.5641    0.0000 C   0  0  1  0  0  0  0  0  0  0  0  0
    9.4586   -0.5226    0.0000 C   0  0  0  0  0  0  0  0  0  0  0  0
    6.1808   -3.0918    0.0000 C   0  0  0  0  0  0  0  0  0  0  0  0
    4.3599   -0.9653    0.0000 C   0  0  0  0  0  0  0  0  0  0  0  0
    7.9288    0.9774    0.0000 C   0  0  0  0  0  0  0  0  0  0  0  0
    9.1857    1.2327    0.0000 C   0  0  1  0  0  0  0  0  0  0  0  0
    4.3433   -3.1208    0.0000 C   0  0  0  0  0  0  0  0  0  0  0  0
    5.2945   -0.5295    0.0000 C   0  0  0  0  0  0  0  0  0  0  0  0
    3.4120   -1.4933    0.0000 C   0  0  0  0  0  0  0  0  0  0  0  0
    3.4037   -2.5783    0.0000 C   0  0  1  0  0  0  0  0  0  0  0  0
   10.1642    1.4389    0.0000 C   0  0  0  0  0  0  0  0  0  0  0  0
    8.5179    1.9770    0.0000 C   0  0  0  0  0  0  0  0  0  0  0  0
   10.4749    2.3894    0.0000 C   0  0  0  0  0  0  0  0  0  0  0  0
   11.4534    2.5956    0.0000 C   0  0  0  0  0  0  0  0  0  0  0  0
 12  1  1  6  0  0  0
 16  2  1  6  0  0  0
 25  3  1  6  0  0  0
  4 29  1  0  0  0  0
  5 29  2  0  0  0  0
  6  7  1  0  0  0  0
  6 11  1  0  0  0  0
  6 12  1  0  0  0  0
  6 20  1  1  0  0  0
  7  8  1  0  0  0  0
  7 15  1  0  0  0  0
  8  9  1  0  0  0  0
  8 16  1  0  0  0  0
  9 10  1  0  0  0  0
  9 13  1  0  0  0  0
 10 14  1  0  0  0  0
 10 19  1  0  0  0  0
 10 23  1  1  0  0  0
 11 17  1  0  0  0  0
 11 21  1  0  0  0  0
 12 13  1  0  0  0  0
 14 18  1  0  0  0  0
 14 22  1  0  0  0  0
 15 17  1  0  0  0  0
 16 18  1  0  0  0  0
 19 24  1  0  0  0  0
 21 26  1  0  0  0  0
 21 27  1  6  0  0  0
 22 25  1  0  0  0  0
 24 25  1  0  0  0  0
 26 28  1  0  0  0  0
 28 29  1  0  0  0  0
M  END
> <PUBCHEM_COMPOUND_CID>
221493

> <PUBCHEM_COMPOUND_CANONICALIZED>
1

> <PUBCHEM_CACTVS_COMPLEXITY>
637

> <PUBCHEM_CACTVS_HBOND_ACCEPTOR>
5

> <PUBCHEM_CACTVS_HBOND_DONOR>
4

> <PUBCHEM_CACTVS_ROTATABLE_BOND>
4

> <PUBCHEM_CACTVS_SUBSKEYS>
AAADcfB4OAAAAAAAAAAAAAAAAAAAAYAAAAAwYMAAAAAAAGDAAAAAGgAACAAADxSggAICCAAAAgAIAACQCAAAAAAAAAAAAAEAAAAAEBIAAAAAQAAEAAAAAAGI6PSPgAAAAAAAAADAAAYAADAAAQAACAAAAA==

> <PUBCHEM_IUPAC_OPENEYE_NAME>
(4~{R})-4-[(3~{R},5~{S},7~{R},8~{R},9~{S},10~{S},12~{S},13~{R},14~{S},17~{R})-3,7,12-trihydroxy-10,13-dimethyl-2,3,4,5,6,7,8,9,11,12,14,15,16,17-tetradecahydro-1~{H}-cyclopenta[a]phenanthren-17-yl]pentanoic acid

> <PUBCHEM_IUPAC_CAS_NAME>
(4~{R})-4-[(3~{R},5~{S},7~{R},8~{R},9~{S},10~{S},12~{S},13~{R},14~{S},17~{R})-3,7,12-trihydroxy-10,13-dimethyl-2,3,4,5,6,7,8,9,11,12,14,15,16,17-tetradecahydro-1~{H}-cyclopenta[a]phenanthren-17-yl]pentanoic acid

> <PUBCHEM_IUPAC_NAME>
(4~{R})-4-[(3~{R},5~{S},7~{R},8~{R},9~{S},10~{S},12~{S},13~{R},14~{S},17~{R})-3,7,12-trihydroxy-10,13-dimethyl-2,3,4,5,6,7,8,9,11,12,14,15,16,17-tetradecahydro-1~{H}-cyclopenta[a]phenanthren-17-yl]pentanoic acid

> <PUBCHEM_IUPAC_SYSTEMATIC_NAME>
(4~{R})-4-[(3~{R},5~{S},7~{R},8~{R},9~{S},10~{S},12~{S},13~{R},14~{S},17~{R})-10,13-dimethyl-3,7,12-tris(oxidanyl)-2,3,4,5,6,7,8,9,11,12,14,15,16,17-tetradecahydro-1~{H}-cyclopenta[a]phenanthren-17-yl]pentanoic acid

> <PUBCHEM_IUPAC_TRADITIONAL_NAME>
(4~{R})-4-[(3~{R},5~{S},7~{R},8~{R},9~{S},10~{S},12~{S},13~{R},14~{S},17~{R})-3,7,12-trihydroxy-10,13-dimethyl-2,3,4,5,6,7,8,9,11,12,14,15,16,17-tetradecahydro-1~{H}-cyclopenta[a]phenanthren-17-yl]valeric acid

> <PUBCHEM_IUPAC_INCHI>
InChI=1S/C24H40O5/c1-13(4-7-21(28)29)16-5-6-17-22-18(12-20(27)24(16,17)3)23(2)9-8-15(25)10-14(23)11-19(22)26/h13-20,22,25-27H,4-12H2,1-3H3,(H,28,29)/t13-,14+,15-,16-,17+,18+,19-,20+,22+,23+,24-/m1/s1

> <PUBCHEM_IUPAC_INCHIKEY>
BHQCQFFYRZLCQQ-OELDTZBJSA-N

> <PUBCHEM_XLOGP3_AA>
3.6

> <PUBCHEM_EXACT_MASS>
408.288

> <PUBCHEM_MOLECULAR_FORMULA>
C24H40O5

> <PUBCHEM_MOLECULAR_WEIGHT>
408.579

> <PUBCHEM_OPENEYE_CAN_SMILES>
CC(CCC(=O)O)C1CCC2C1(C(CC3C2C(CC4C3(CCC(C4)O)C)O)O)C

> <PUBCHEM_OPENEYE_ISO_SMILES>
C[C@H](CCC(=O)O)[C@H]1CC[C@@H]2[C@@]1([C@H](C[C@H]3[C@H]2[C@@H](C[C@H]4[C@@]3(CC[C@H](C4)O)C)O)O)C

> <PUBCHEM_CACTVS_TPSA>
98

> <PUBCHEM_MONOISOTOPIC_WEIGHT>
408.288

> <PUBCHEM_TOTAL_CHARGE>
0

> <PUBCHEM_HEAVY_ATOM_COUNT>
29

> <PUBCHEM_ATOM_DEF_STEREO_COUNT>
11

> <PUBCHEM_ATOM_UDEF_STEREO_COUNT>
0

> <PUBCHEM_BOND_DEF_STEREO_COUNT>
0

> <PUBCHEM_BOND_UDEF_STEREO_COUNT>
0

> <PUBCHEM_ISOTOPIC_ATOM_COUNT>
0

> <PUBCHEM_COMPONENT_COUNT>
1

> <PUBCHEM_CACTVS_TAUTO_COUNT>
-1

> <PUBCHEM_COORDINATE_TYPE>
1
5
255

> <PUBCHEM_BONDANNOTATIONS>
12  1  6
10  23  5
11  33  6
14  37  5
16  2  6
21  27  6
25  3  6
6  20  5
7  30  6
8  31  5
9  32  6

$$$$
134129658
  -OEChem-02061915112D

 29 31  0     1  0  0  0  0  0999 V2000
    5.4641   -4.8465    0.0000 O   0  0  0  0  0  0  0  0  0  0  0  0
    5.4641    1.1535    0.0000 C   0  0  2  0  0  0  0  0  0  0  0  0
    6.4103    1.4582    0.0000 C   0  0  1  0  0  0  0  0  0  0  0  0
    5.4641    0.1535    0.0000 C   0  0  3  0  0  0  0  0  0  0  0  0
    6.9939    0.6535    0.0000 C   0  0  0  0  0  0  0  0  0  0  0  0
    6.4103   -0.1512    0.0000 C   0  0  0  0  0  0  0  0  0  0  0  0
    4.5981    1.6535    0.0000 C   0  0  0  0  0  0  0  0  0  0  0  0
    6.7210    2.4087    0.0000 C   0  0  2  0  0  0  0  0  0  0  0  0
    4.5981   -0.3465    0.0000 C   0  0  0  0  0  0  0  0  0  0  0  0
    5.4641    2.1535    0.0000 C   0  0  0  0  0  0  0  0  0  0  0  0
    3.7320    1.1535    0.0000 C   0  0  0  0  0  0  0  0  0  0  0  0
    3.7320    0.1535    0.0000 C   0  0  0  0  0  0  0  0  0  0  0  0
    6.0531    3.1530    0.0000 C   0  0  0  0  0  0  0  0  0  0  0  0
    7.6995    2.6150    0.0000 C   0  0  0  0  0  0  0  0  0  0  0  0
    4.5981   -1.3465    0.0000 C   0  0  0  0  0  0  0  0  0  0  0  0
    8.0102    3.5655    0.0000 C   0  0  0  0  0  0  0  0  0  0  0  0
    3.7320   -1.8465    0.0000 C   0  0  0  0  0  0  0  0  0  0  0  0
    8.9887    3.7717    0.0000 C   0  0  1  0  0  0  0  0  0  0  0  0
    3.7320   -2.8465    0.0000 C   0  0  0  0  0  0  0  0  0  0  0  0
    9.2993    4.7222    0.0000 C   0  0  0  0  0  0  0  0  0  0  0  0
    4.5981   -3.3465    0.0000 C   0  0  0  0  0  0  0  0  0  0  0  0
    9.6565    3.0274    0.0000 C   0  0  0  0  0  0  0  0  0  0  0  0
    2.8660   -3.3465    0.0000 C   0  0  0  0  0  0  0  0  0  0  0  0
    4.5981   -4.3465    0.0000 C   0  0  2  0  0  0  0  0  0  0  0  0
    2.8660   -4.3465    0.0000 C   0  0  0  0  0  0  0  0  0  0  0  0
    3.7320   -4.8465    0.0000 C   0  0  0  0  0  0  0  0  0  0  0  0
   10.2778    4.9284    0.0000 C   0  0  0  0  0  0  0  0  0  0  0  0
    8.6315    5.4665    0.0000 C   0  0  0  0  0  0  0  0  0  0  0  0
    2.0000   -2.8465    0.0000 C   0  0  0  0  0  0  0  0  0  0  0  0
 24  1  1  1  0  0  0
  2  3  1  0  0  0  0
  2  4  1  0  0  0  0
  2  7  1  0  0  0  0
  2 10  1  1  0  0  0
  3  5  1  0  0  0  0
  3  8  1  0  0  0  0
  4  6  1  0  0  0  0
  4  9  1  0  0  0  0
  5  6  1  0  0  0  0
  7 11  1  0  0  0  0
  8 13  1  6  0  0  0
  8 14  1  0  0  0  0
  9 12  1  0  0  0  0
  9 15  2  3  0  0  0
 11 12  1  0  0  0  0
 14 16  2  3  0  0  0
 15 17  1  0  0  0  0
 16 18  1  0  0  0  0
 17 19  2  3  0  0  0
 18 20  1  0  0  0  0
 18 22  1  1  0  0  0
 19 21  1  0  0  0  0
 19 23  1  0  0  0  0
 20 27  1  0  0  0  0
 20 28  1  0  0  0  0
 21 24  1  0  0  0  0
 23 25  1  0  0  0  0
 23 29  2  0  0  0  0
 24 26  1  0  0  0  0
 25 26  1  0  0  0  0
M  END
> <PUBCHEM_COMPOUND_CID>
134129658

> <PUBCHEM_COMPOUND_CANONICALIZED>
1

> <PUBCHEM_CACTVS_COMPLEXITY>
678

> <PUBCHEM_CACTVS_HBOND_ACCEPTOR>
1

> <PUBCHEM_CACTVS_HBOND_DONOR>
1

> <PUBCHEM_CACTVS_ROTATABLE_BOND>
5

> <PUBCHEM_CACTVS_SUBSKEYS>
AAADcfB4IAAAAAAAAAAAAAAAAAAAAYAAAAAwYAAAAAAAAGAAAAAAGgAACAAADxSggAICAAAAAgCAAiBCAAAAAAAgAAAICAAAAAgIEAIAAQAAQAAEwAAIgAOAwMAPgAAAAAAAAAAAAAAAACAAAQAACAAAAA==

> <PUBCHEM_IUPAC_OPENEYE_NAME>
(1~{S})-3-[2-[(1~{S},7~{a}~{R})-7~{a}-methyl-1-[(1~{R},4~{R})-1,4,5-trimethylhex-2-enyl]-2,3,3~{a},5,6,7-hexahydro-1~{H}-inden-4-ylidene]ethylidene]-4-methylene-cyclohexanol

> <PUBCHEM_IUPAC_CAS_NAME>
(1~{S})-3-[2-[(1~{S},7~{a}~{R})-1-[(2~{R},5~{R})-5,6-dimethylhept-3-en-2-yl]-7~{a}-methyl-2,3,3~{a},5,6,7-hexahydro-1~{H}-inden-4-ylidene]ethylidene]-4-methylene-1-cyclohexanol

> <PUBCHEM_IUPAC_NAME>
(1~{S})-3-[2-[(1~{S},7~{a}~{R})-1-[(2~{R},5~{R})-5,6-dimethylhept-3-en-2-yl]-7~{a}-methyl-2,3,3~{a},5,6,7-hexahydro-1~{H}-inden-4-ylidene]ethylidene]-4-methylidenecyclohexan-1-ol

> <PUBCHEM_IUPAC_SYSTEMATIC_NAME>
(1~{S})-3-[2-[(1~{S},7~{a}~{R})-1-[(2~{R},5~{R})-5,6-dimethylhept-3-en-2-yl]-7~{a}-methyl-2,3,3~{a},5,6,7-hexahydro-1~{H}-inden-4-ylidene]ethylidene]-4-methylidene-cyclohexan-1-ol

> <PUBCHEM_IUPAC_TRADITIONAL_NAME>
(1~{S})-3-[2-[(1~{S},7~{a}~{R})-7~{a}-methyl-1-[(1~{R},4~{R})-1,4,5-trimethylhex-2-enyl]-2,3,3~{a},5,6,7-hexahydro-1~{H}-inden-4-ylidene]ethylidene]-4-methylene-cyclohexanol

> <PUBCHEM_IUPAC_INCHI>
InChI=1S/C28H44O/c1-19(2)20(3)9-10-22(5)26-15-16-27-23(8-7-17-28(26,27)6)12-13-24-18-25(29)14-11-21(24)4/h9-10,12-13,19-20,22,25-27,29H,4,7-8,11,14-18H2,1-3,5-6H3/t20-,22+,25-,26-,27?,28+/m0/s1

> <PUBCHEM_IUPAC_INCHIKEY>
MECHNRXZTMCUDQ-FWJFVZHNSA-N

> <PUBCHEM_XLOGP3_AA>
7.4

> <PUBCHEM_EXACT_MASS>
396.339

> <PUBCHEM_MOLECULAR_FORMULA>
C28H44O

> <PUBCHEM_MOLECULAR_WEIGHT>
396.659

> <PUBCHEM_OPENEYE_CAN_SMILES>
CC(C)C(C)C=CC(C)C1CCC2C1(CCCC2=CC=C3CC(CCC3=C)O)C

> <PUBCHEM_OPENEYE_ISO_SMILES>
C[C@H](C=C[C@H](C)C(C)C)[C@@H]1CCC2[C@@]1(CCCC2=CC=C3C[C@H](CCC3=C)O)C

> <PUBCHEM_CACTVS_TPSA>
20.2

> <PUBCHEM_MONOISOTOPIC_WEIGHT>
396.339

> <PUBCHEM_TOTAL_CHARGE>
0

> <PUBCHEM_HEAVY_ATOM_COUNT>
29

> <PUBCHEM_ATOM_DEF_STEREO_COUNT>
5

> <PUBCHEM_ATOM_UDEF_STEREO_COUNT>
1

> <PUBCHEM_BOND_DEF_STEREO_COUNT>
0

> <PUBCHEM_BOND_UDEF_STEREO_COUNT>
3

> <PUBCHEM_ISOTOPIC_ATOM_COUNT>
0

> <PUBCHEM_COMPONENT_COUNT>
1

> <PUBCHEM_CACTVS_TAUTO_COUNT>
-1

> <PUBCHEM_COORDINATE_TYPE>
1
5
255

> <PUBCHEM_BONDANNOTATIONS>
24  1  5
14  16  1
17  19  1
18  22  5
2  10  5
3  30  5
4  6  3
8  13  6
9  15  1

$$$$
13728
  -OEChem-02061913072D

 18 19  0     0  0  0  0  0  0999 V2000
    2.0000    0.5000    0.0000 O   0  0  0  0  0  0  0  0  0  0  0  0
    2.8660    2.0000    0.0000 N   0  0  0  0  0  0  0  0  0  0  0  0
    3.7320    0.5000    0.0000 C   0  0  0  0  0  0  0  0  0  0  0  0
    3.7320   -0.5000    0.0000 C   0  0  0  0  0  0  0  0  0  0  0  0
    4.5981    1.0000    0.0000 C   0  0  0  0  0  0  0  0  0  0  0  0
    2.8660    1.0000    0.0000 C   0  0  0  0  0  0  0  0  0  0  0  0
    2.8660   -1.0000    0.0000 C   0  0  0  0  0  0  0  0  0  0  0  0
    5.4641    0.5000    0.0000 C   0  0  0  0  0  0  0  0  0  0  0  0
    4.5981   -1.0000    0.0000 C   0  0  0  0  0  0  0  0  0  0  0  0
    4.5981    2.0000    0.0000 C   0  0  0  0  0  0  0  0  0  0  0  0
    6.3301    1.0000    0.0000 C   0  0  0  0  0  0  0  0  0  0  0  0
    2.8660   -2.0000    0.0000 C   0  0  0  0  0  0  0  0  0  0  0  0
    4.5981   -2.0000    0.0000 C   0  0  0  0  0  0  0  0  0  0  0  0
    5.4641    2.5000    0.0000 C   0  0  0  0  0  0  0  0  0  0  0  0
    2.0000    2.5000    0.0000 C   0  0  0  0  0  0  0  0  0  0  0  0
    3.7320    2.5000    0.0000 C   0  0  0  0  0  0  0  0  0  0  0  0
    6.3301    2.0000    0.0000 C   0  0  0  0  0  0  0  0  0  0  0  0
    3.7320   -2.5000    0.0000 C   0  0  0  0  0  0  0  0  0  0  0  0
  1  6  2  0  0  0  0
  2  6  1  0  0  0  0
  2 15  1  0  0  0  0
  2 16  1  0  0  0  0
  3  4  1  0  0  0  0
  3  5  1  0  0  0  0
  3  6  1  0  0  0  0
  4  7  2  0  0  0  0
  4  9  1  0  0  0  0
  5  8  2  0  0  0  0
  5 10  1  0  0  0  0
  7 12  1  0  0  0  0
  8 11  1  0  0  0  0
  9 13  2  0  0  0  0
 10 14  2  0  0  0  0
 11 17  2  0  0  0  0
 12 18  2  0  0  0  0
 13 18  1  0  0  0  0
 14 17  1  0  0  0  0
M  END
> <PUBCHEM_COMPOUND_CID>
13728

> <PUBCHEM_COMPOUND_CANONICALIZED>
1

> <PUBCHEM_CACTVS_COMPLEXITY>
244

> <PUBCHEM_CACTVS_HBOND_ACCEPTOR>
1

> <PUBCHEM_CACTVS_HBOND_DONOR>
0

> <PUBCHEM_CACTVS_ROTATABLE_BOND>
3

> <PUBCHEM_CACTVS_SUBSKEYS>
AAADceB6IAAAAAAAAAAAAAAAAAAAAAAAAAAwYAAAAAAAAAABQAAAHgAAAAAADQCBmAQyAIMAAACIAiFSEAACAAAgAAAIiAEIAIgIIDKAlRGEIAAgggAIiAcYiMCOgAAAAAAAAAAAAAAAAAAAAAAAAAAAAA==

> <PUBCHEM_IUPAC_OPENEYE_NAME>
~{N},~{N}-dimethyl-2,2-diphenyl-acetamide

> <PUBCHEM_IUPAC_CAS_NAME>
~{N},~{N}-dimethyl-2,2-diphenylacetamide

> <PUBCHEM_IUPAC_NAME>
~{N},~{N}-dimethyl-2,2-diphenylacetamide

> <PUBCHEM_IUPAC_SYSTEMATIC_NAME>
~{N},~{N}-dimethyl-2,2-diphenyl-ethanamide

> <PUBCHEM_IUPAC_TRADITIONAL_NAME>
~{N},~{N}-dimethyl-2,2-diphenyl-acetamide

> <PUBCHEM_IUPAC_INCHI>
InChI=1S/C16H17NO/c1-17(2)16(18)15(13-9-5-3-6-10-13)14-11-7-4-8-12-14/h3-12,15H,1-2H3

> <PUBCHEM_IUPAC_INCHIKEY>
QAHFOPIILNICLA-UHFFFAOYSA-N

> <PUBCHEM_XLOGP3>
3

> <PUBCHEM_EXACT_MASS>
239.131

> <PUBCHEM_MOLECULAR_FORMULA>
C16H17NO

> <PUBCHEM_MOLECULAR_WEIGHT>
239.318

> <PUBCHEM_OPENEYE_CAN_SMILES>
CN(C)C(=O)C(C1=CC=CC=C1)C2=CC=CC=C2

> <PUBCHEM_OPENEYE_ISO_SMILES>
CN(C)C(=O)C(C1=CC=CC=C1)C2=CC=CC=C2

> <PUBCHEM_CACTVS_TPSA>
20.3

> <PUBCHEM_MONOISOTOPIC_WEIGHT>
239.131

> <PUBCHEM_TOTAL_CHARGE>
0

> <PUBCHEM_HEAVY_ATOM_COUNT>
18

> <PUBCHEM_ATOM_DEF_STEREO_COUNT>
0

> <PUBCHEM_ATOM_UDEF_STEREO_COUNT>
0

> <PUBCHEM_BOND_DEF_STEREO_COUNT>
0

> <PUBCHEM_BOND_UDEF_STEREO_COUNT>
0

> <PUBCHEM_ISOTOPIC_ATOM_COUNT>
0

> <PUBCHEM_COMPONENT_COUNT>
1

> <PUBCHEM_CACTVS_TAUTO_COUNT>
-1

> <PUBCHEM_COORDINATE_TYPE>
1
5
255

> <PUBCHEM_BONDANNOTATIONS>
10  14  8
11  17  8
12  18  8
13  18  8
14  17  8
4  7  8
4  9  8
5  10  8
5  8  8
7  12  8
8  11  8
9  13  8

$$$$
129659218
  -OEChem-02061915082D

  9 10  0     1  0  0  0  0  0999 V2000
    5.0503    0.7844    0.0000 C   0  0  1  0  0  0  0  0  0  0  0  0
    4.7915   -0.1815    0.0000 C   0  0  1  0  0  0  0  0  0  0  0  0
    4.3137    1.7670    0.0000 C   0  0  0  0  0  0  0  0  0  0  0  0
    3.0768    0.1661    0.0000 C   0  0  0  0  0  0  0  0  0  0  0  0
    3.4188   -0.7735    0.0000 C   0  0  0  0  0  0  0  0  0  0  0  0
    6.4493    0.2756    0.0000 C   0  0  0  0  0  0  0  0  0  0  0  0
    6.1905   -0.6903    0.0000 C   0  0  0  0  0  0  0  0  0  0  0  0
    2.9962   -1.6799    0.0000 C   0  0  0  0  0  0  0  0  0  0  0  0
    2.0000   -1.7670    0.0000 C   0  0  0  0  0  0  0  0  0  0  0  0
  1  3  1  0  0  0  0
  1  4  1  0  0  0  0
  1  6  1  0  0  0  0
  2  3  1  0  0  0  0
  2  5  1  0  0  0  0
  2  7  1  0  0  0  0
  4  5  1  0  0  0  0
  5  8  2  3  0  0  0
  6  7  2  0  0  0  0
  8  9  1  0  0  0  0
M  END
> <PUBCHEM_COMPOUND_CID>
129659218

> <PUBCHEM_COMPOUND_CANONICALIZED>
1

> <PUBCHEM_CACTVS_COMPLEXITY>
175

> <PUBCHEM_CACTVS_HBOND_ACCEPTOR>
0

> <PUBCHEM_CACTVS_HBOND_DONOR>
0

> <PUBCHEM_CACTVS_ROTATABLE_BOND>
0

> <PUBCHEM_CACTVS_SUBSKEYS>
AAADccBwAAAAAAAAAAAAAAAAAAAAAYIAAAAgAAAAAAAAAAAAAAAAGAAAAAAADQCAAAACAAAAAACAAiBCAAAAAAAgAAAICAAAAAgAAAIAAQAAAAAAgAAIAAMAAAAOAAAAAAAAAAAAAAAAAAAAAQAAAAAAAA==

> <PUBCHEM_IUPAC_OPENEYE_NAME>
(1~{S},4~{R})-5-ethylidenebicyclo[2.2.1]hept-2-ene

> <PUBCHEM_IUPAC_CAS_NAME>
(1~{S},4~{R})-5-ethylidenebicyclo[2.2.1]hept-2-ene

> <PUBCHEM_IUPAC_NAME>
(1~{S},4~{R})-5-ethylidenebicyclo[2.2.1]hept-2-ene

> <PUBCHEM_IUPAC_SYSTEMATIC_NAME>
(1~{S},4~{R})-5-ethylidenebicyclo[2.2.1]hept-2-ene

> <PUBCHEM_IUPAC_TRADITIONAL_NAME>
(1~{S},4~{R})-5-ethylidenebicyclo[2.2.1]hept-2-ene

> <PUBCHEM_IUPAC_INCHI>
InChI=1S/C9H12/c1-2-8-5-7-3-4-9(8)6-7/h2-4,7,9H,5-6H2,1H3/t7-,9+/m1/s1

> <PUBCHEM_IUPAC_INCHIKEY>
OJOWICOBYCXEKR-APPZFPTMSA-N

> <PUBCHEM_XLOGP3_AA>
2.2

> <PUBCHEM_EXACT_MASS>
120.094

> <PUBCHEM_MOLECULAR_FORMULA>
C9H12

> <PUBCHEM_MOLECULAR_WEIGHT>
120.195

> <PUBCHEM_OPENEYE_CAN_SMILES>
CC=C1CC2CC1C=C2

> <PUBCHEM_OPENEYE_ISO_SMILES>
CC=C1C[C@@H]2C[C@@H]1C=C2

> <PUBCHEM_CACTVS_TPSA>
0

> <PUBCHEM_MONOISOTOPIC_WEIGHT>
120.094

> <PUBCHEM_TOTAL_CHARGE>
0

> <PUBCHEM_HEAVY_ATOM_COUNT>
9

> <PUBCHEM_ATOM_DEF_STEREO_COUNT>
2

> <PUBCHEM_ATOM_UDEF_STEREO_COUNT>
0

> <PUBCHEM_BOND_DEF_STEREO_COUNT>
0

> <PUBCHEM_BOND_UDEF_STEREO_COUNT>
1

> <PUBCHEM_ISOTOPIC_ATOM_COUNT>
0

> <PUBCHEM_COMPONENT_COUNT>
1

> <PUBCHEM_CACTVS_TAUTO_COUNT>
-1

> <PUBCHEM_COORDINATE_TYPE>
1
5
255

> <PUBCHEM_BONDANNOTATIONS>
1  10  5
2  11  5
5  8  1

$$$$
11003810
  -OEChem-02061913482D

 29 31  0     1  0  0  0  0  0999 V2000
    2.0000   -4.8465    0.0000 O   0  0  0  0  0  0  0  0  0  0  0  0
    5.4641    1.1535    0.0000 C   0  0  2  0  0  0  0  0  0  0  0  0
    6.4103    1.4582    0.0000 C   0  0  2  0  0  0  0  0  0  0  0  0
    5.4641    0.1535    0.0000 C   0  0  3  0  0  0  0  0  0  0  0  0
    6.9939    0.6535    0.0000 C   0  0  0  0  0  0  0  0  0  0  0  0
    6.4103   -0.1512    0.0000 C   0  0  0  0  0  0  0  0  0  0  0  0
    4.5981    1.6535    0.0000 C   0  0  0  0  0  0  0  0  0  0  0  0
    6.7210    2.4087    0.0000 C   0  0  2  0  0  0  0  0  0  0  0  0
    4.5981   -0.3465    0.0000 C   0  0  0  0  0  0  0  0  0  0  0  0
    5.4641    2.1535    0.0000 C   0  0  0  0  0  0  0  0  0  0  0  0
    3.7320    1.1535    0.0000 C   0  0  0  0  0  0  0  0  0  0  0  0
    3.7320    0.1535    0.0000 C   0  0  0  0  0  0  0  0  0  0  0  0
    6.0531    3.1530    0.0000 C   0  0  0  0  0  0  0  0  0  0  0  0
    7.6995    2.6150    0.0000 C   0  0  0  0  0  0  0  0  0  0  0  0
    4.5981   -1.3465    0.0000 C   0  0  0  0  0  0  0  0  0  0  0  0
    8.0102    3.5655    0.0000 C   0  0  0  0  0  0  0  0  0  0  0  0
    3.7320   -1.8465    0.0000 C   0  0  0  0  0  0  0  0  0  0  0  0
    8.9887    3.7717    0.0000 C   0  0  1  0  0  0  0  0  0  0  0  0
    3.7320   -2.8465    0.0000 C   0  0  0  0  0  0  0  0  0  0  0  0
    9.2993    4.7222    0.0000 C   0  0  0  0  0  0  0  0  0  0  0  0
    2.8660   -3.3465    0.0000 C   0  0  0  0  0  0  0  0  0  0  0  0
    9.6565    3.0274    0.0000 C   0  0  0  0  0  0  0  0  0  0  0  0
    4.5981   -3.3465    0.0000 C   0  0  0  0  0  0  0  0  0  0  0  0
    2.8660   -4.3465    0.0000 C   0  0  2  0  0  0  0  0  0  0  0  0
    4.5981   -4.3465    0.0000 C   0  0  0  0  0  0  0  0  0  0  0  0
    3.7320   -4.8465    0.0000 C   0  0  0  0  0  0  0  0  0  0  0  0
   10.2778    4.9284    0.0000 C   0  0  0  0  0  0  0  0  0  0  0  0
    8.6315    5.4665    0.0000 C   0  0  0  0  0  0  0  0  0  0  0  0
    5.4641   -2.8465    0.0000 C   0  0  0  0  0  0  0  0  0  0  0  0
 24  1  1  6  0  0  0
  2  3  1  0  0  0  0
  2  4  1  0  0  0  0
  2  7  1  0  0  0  0
  2 10  1  1  0  0  0
  3  5  1  0  0  0  0
  3  8  1  0  0  0  0
  4  6  1  0  0  0  0
  4  9  1  0  0  0  0
  5  6  1  0  0  0  0
  7 11  1  0  0  0  0
  8 13  1  6  0  0  0
  8 14  1  0  0  0  0
  9 12  1  0  0  0  0
  9 15  2  0  0  0  0
 11 12  1  0  0  0  0
 14 16  2  0  0  0  0
 15 17  1  0  0  0  0
 16 18  1  0  0  0  0
 17 19  2  0  0  0  0
 18 20  1  0  0  0  0
 18 22  1  1  0  0  0
 19 21  1  0  0  0  0
 19 23  1  0  0  0  0
 20 27  1  0  0  0  0
 20 28  1  0  0  0  0
 21 24  1  0  0  0  0
 23 25  1  0  0  0  0
 23 29  2  0  0  0  0
 24 26  1  0  0  0  0
 25 26  1  0  0  0  0
M  END
> <PUBCHEM_COMPOUND_CID>
11003810

> <PUBCHEM_COMPOUND_CANONICALIZED>
1

> <PUBCHEM_CACTVS_COMPLEXITY>
678

> <PUBCHEM_CACTVS_HBOND_ACCEPTOR>
1

> <PUBCHEM_CACTVS_HBOND_DONOR>
1

> <PUBCHEM_CACTVS_ROTATABLE_BOND>
5

> <PUBCHEM_CACTVS_SUBSKEYS>
AAADcfB4IAAAAAAAAAAAAAAAAAAAAYAAAAAwYAAAAAAAAGAAAAAAGgAACAAADxSggAICAAAAAgCAAiBCAAAAAAAgAAAICAAAAAgIEAIAAQAAQAAEwAAIgAOAwMAPgAAAAAAAAAAAAAAAACAAAQAACAAAAA==

> <PUBCHEM_IUPAC_OPENEYE_NAME>
(1~{S},3~{Z})-3-[(2~{E})-2-[(1~{R},7~{a}~{R})-7~{a}-methyl-1-[(~{E},1~{R},4~{R})-1,4,5-trimethylhex-2-enyl]-2,3,3~{a},5,6,7-hexahydro-1~{H}-inden-4-ylidene]ethylidene]-4-methylene-cyclohexanol

> <PUBCHEM_IUPAC_CAS_NAME>
(1~{S},3~{Z})-3-[(2~{E})-2-[(1~{R},7~{a}~{R})-1-[(~{E},2~{R},5~{R})-5,6-dimethylhept-3-en-2-yl]-7~{a}-methyl-2,3,3~{a},5,6,7-hexahydro-1~{H}-inden-4-ylidene]ethylidene]-4-methylene-1-cyclohexanol

> <PUBCHEM_IUPAC_NAME>
(1~{S},3~{Z})-3-[(2~{E})-2-[(1~{R},7~{a}~{R})-1-[(~{E},2~{R},5~{R})-5,6-dimethylhept-3-en-2-yl]-7~{a}-methyl-2,3,3~{a},5,6,7-hexahydro-1~{H}-inden-4-ylidene]ethylidene]-4-methylidenecyclohexan-1-ol

> <PUBCHEM_IUPAC_SYSTEMATIC_NAME>
(1~{S},3~{Z})-3-[(2~{E})-2-[(1~{R},7~{a}~{R})-1-[(~{E},2~{R},5~{R})-5,6-dimethylhept-3-en-2-yl]-7~{a}-methyl-2,3,3~{a},5,6,7-hexahydro-1~{H}-inden-4-ylidene]ethylidene]-4-methylidene-cyclohexan-1-ol

> <PUBCHEM_IUPAC_TRADITIONAL_NAME>
(1~{S},3~{Z})-3-[(2~{E})-2-[(1~{R},7~{a}~{R})-7~{a}-methyl-1-[(~{E},1~{R},4~{R})-1,4,5-trimethylhex-2-enyl]-2,3,3~{a},5,6,7-hexahydro-1~{H}-inden-4-ylidene]ethylidene]-4-methylene-cyclohexanol

> <PUBCHEM_IUPAC_INCHI>
InChI=1S/C28H44O/c1-19(2)20(3)9-10-22(5)26-15-16-27-23(8-7-17-28(26,27)6)12-13-24-18-25(29)14-11-21(24)4/h9-10,12-13,19-20,22,25-27,29H,4,7-8,11,14-18H2,1-3,5-6H3/b10-9+,23-12+,24-13-/t20-,22+,25-,26+,27?,28+/m0/s1

> <PUBCHEM_IUPAC_INCHIKEY>
MECHNRXZTMCUDQ-GXNDFQCXSA-N

> <PUBCHEM_XLOGP3_AA>
7.4

> <PUBCHEM_EXACT_MASS>
396.339

> <PUBCHEM_MOLECULAR_FORMULA>
C28H44O

> <PUBCHEM_MOLECULAR_WEIGHT>
396.659

> <PUBCHEM_OPENEYE_CAN_SMILES>
CC(C)C(C)C=CC(C)C1CCC2C1(CCCC2=CC=C3CC(CCC3=C)O)C

> <PUBCHEM_OPENEYE_ISO_SMILES>
C[C@H](/C=C/[C@H](C)C(C)C)[C@H]1CCC\2[C@@]1(CCC/C2=C\C=C/3\C[C@H](CCC3=C)O)C

> <PUBCHEM_CACTVS_TPSA>
20.2

> <PUBCHEM_MONOISOTOPIC_WEIGHT>
396.339

> <PUBCHEM_TOTAL_CHARGE>
0

> <PUBCHEM_HEAVY_ATOM_COUNT>
29

> <PUBCHEM_ATOM_DEF_STEREO_COUNT>
5

> <PUBCHEM_ATOM_UDEF_STEREO_COUNT>
1

> <PUBCHEM_BOND_DEF_STEREO_COUNT>
3

> <PUBCHEM_BOND_UDEF_STEREO_COUNT>
0

> <PUBCHEM_ISOTOPIC_ATOM_COUNT>
0

> <PUBCHEM_COMPONENT_COUNT>
1

> <PUBCHEM_CACTVS_TAUTO_COUNT>
-1

> <PUBCHEM_COORDINATE_TYPE>
1
5
255

> <PUBCHEM_BONDANNOTATIONS>
24  1  6
18  22  5
2  10  5
3  30  6
4  6  3
8  13  6

$$$$
16247
  -OEChem-02061913072D

 15 15  0     0  0  0  0  0  0999 V2000
    3.7320   -1.2500    0.0000 O   0  0  0  0  0  0  0  0  0  0  0  0
    5.4641   -1.2500    0.0000 O   0  0  0  0  0  0  0  0  0  0  0  0
    3.7320    2.7500    0.0000 N   0  0  0  0  0  0  0  0  0  0  0  0
    4.5981   -2.7500    0.0000 N   0  0  0  0  0  0  0  0  0  0  0  0
    3.7320    1.7500    0.0000 C   0  0  0  0  0  0  0  0  0  0  0  0
    2.8660    1.2500    0.0000 C   0  0  0  0  0  0  0  0  0  0  0  0
    4.5981    1.2500    0.0000 C   0  0  0  0  0  0  0  0  0  0  0  0
    2.8660    0.2500    0.0000 C   0  0  0  0  0  0  0  0  0  0  0  0
    3.7320   -0.2500    0.0000 C   0  0  0  0  0  0  0  0  0  0  0  0
    4.5981    0.2500    0.0000 C   0  0  0  0  0  0  0  0  0  0  0  0
    2.0000    1.7500    0.0000 C   0  0  0  0  0  0  0  0  0  0  0  0
    4.5981    3.2500    0.0000 C   0  0  0  0  0  0  0  0  0  0  0  0
    2.8660    3.2500    0.0000 C   0  0  0  0  0  0  0  0  0  0  0  0
    4.5981   -1.7500    0.0000 C   0  0  0  0  0  0  0  0  0  0  0  0
    5.4641   -3.2500    0.0000 C   0  0  0  0  0  0  0  0  0  0  0  0
  1  9  1  0  0  0  0
  1 14  1  0  0  0  0
  2 14  2  0  0  0  0
  3  5  1  0  0  0  0
  3 12  1  0  0  0  0
  3 13  1  0  0  0  0
  4 14  1  0  0  0  0
  4 15  1  0  0  0  0
  5  6  2  0  0  0  0
  5  7  1  0  0  0  0
  6  8  1  0  0  0  0
  6 11  1  0  0  0  0
  7 10  2  0  0  0  0
  8  9  2  0  0  0  0
  9 10  1  0  0  0  0
M  END
> <PUBCHEM_COMPOUND_CID>
16247

> <PUBCHEM_COMPOUND_CANONICALIZED>
1

> <PUBCHEM_CACTVS_COMPLEXITY>
219

> <PUBCHEM_CACTVS_HBOND_ACCEPTOR>
3

> <PUBCHEM_CACTVS_HBOND_DONOR>
1

> <PUBCHEM_CACTVS_ROTATABLE_BOND>
3

> <PUBCHEM_CACTVS_SUBSKEYS>
AAADceBzMAAAAAAAAAAAAAAAAAAAAAAAAAAwAAAAAAAAAAABAAAAHgAQAAAADAyBmAQyzoPABACIAiRCWACCCAAhIgAIiIAObIkMJiLEsZuMMihkwhFI6AewwBAOAEABAAACAAAAgAIAAAQAAAAAAAAAAA==

> <PUBCHEM_IUPAC_OPENEYE_NAME>
[4-(dimethylamino)-3-methyl-phenyl] ~{N}-methylcarbamate

> <PUBCHEM_IUPAC_CAS_NAME>
~{N}-methylcarbamic acid [4-(dimethylamino)-3-methylphenyl] ester

> <PUBCHEM_IUPAC_NAME>
[4-(dimethylamino)-3-methylphenyl] ~{N}-methylcarbamate

> <PUBCHEM_IUPAC_SYSTEMATIC_NAME>
[4-(dimethylamino)-3-methyl-phenyl] ~{N}-methylcarbamate

> <PUBCHEM_IUPAC_TRADITIONAL_NAME>
~{N}-methylcarbamic acid [4-(dimethylamino)-3-methyl-phenyl] ester

> <PUBCHEM_IUPAC_INCHI>
InChI=1S/C11H16N2O2/c1-8-7-9(15-11(14)12-2)5-6-10(8)13(3)4/h5-7H,1-4H3,(H,12,14)

> <PUBCHEM_IUPAC_INCHIKEY>
IMIDOCRTMDIQIJ-UHFFFAOYSA-N

> <PUBCHEM_XLOGP3>
1.9

> <PUBCHEM_EXACT_MASS>
208.121

> <PUBCHEM_MOLECULAR_FORMULA>
C11H16N2O2

> <PUBCHEM_MOLECULAR_WEIGHT>
208.261

> <PUBCHEM_OPENEYE_CAN_SMILES>
CC1=C(C=CC(=C1)OC(=O)NC)N(C)C

> <PUBCHEM_OPENEYE_ISO_SMILES>
CC1=C(C=CC(=C1)OC(=O)NC)N(C)C

> <PUBCHEM_CACTVS_TPSA>
41.6

> <PUBCHEM_MONOISOTOPIC_WEIGHT>
208.121

> <PUBCHEM_TOTAL_CHARGE>
0

> <PUBCHEM_HEAVY_ATOM_COUNT>
15

> <PUBCHEM_ATOM_DEF_STEREO_COUNT>
0

> <PUBCHEM_ATOM_UDEF_STEREO_COUNT>
0

> <PUBCHEM_BOND_DEF_STEREO_COUNT>
0

> <PUBCHEM_BOND_UDEF_STEREO_COUNT>
0

> <PUBCHEM_ISOTOPIC_ATOM_COUNT>
0

> <PUBCHEM_COMPONENT_COUNT>
1

> <PUBCHEM_CACTVS_TAUTO_COUNT>
-1

> <PUBCHEM_COORDINATE_TYPE>
1
5
255

> <PUBCHEM_BONDANNOTATIONS>
5  6  8
5  7  8
6  8  8
7  10  8
8  9  8
9  10  8

$$$$
5484444
  -OEChem-02061913342D

 24 27  0     1  0  0  0  0  0999 V2000
    5.5320    0.3376    0.0000 O   0  0  0  0  0  0  0  0  0  0  0  0
    2.8680   -1.1382    0.0000 O   0  0  0  0  0  0  0  0  0  0  0  0
    7.7389    2.3435    0.0000 N   0  0  3  0  0  0  0  0  0  0  0  0
    6.3981   -3.1624    0.0000 N   0  0  0  0  0  0  0  0  0  0  0  0
    8.2389    1.4774    0.0000 C   0  0  3  0  0  0  0  0  0  0  0  0
    7.2641    0.3376    0.0000 C   0  0  1  0  0  0  0  0  0  0  0  0
    8.2300    0.0788    0.0000 C   0  0  0  0  0  0  0  0  0  0  0  0
    6.1726    1.5638    0.0000 C   0  0  1  0  0  0  0  0  0  0  0  0
    9.4585    2.3310    0.0000 C   0  0  0  0  0  0  0  0  0  0  0  0
    6.2598    2.5600    0.0000 C   0  0  0  0  0  0  0  0  0  0  0  0
    8.9585    3.1970    0.0000 C   0  0  0  0  0  0  0  0  0  0  0  0
    6.3981   -0.1624    0.0000 C   0  0  1  0  0  0  0  0  0  0  0  0
    5.1878    1.3902    0.0000 C   0  0  0  0  0  0  0  0  0  0  0  0
    6.3981   -1.1624    0.0000 C   0  0  0  0  0  0  0  0  0  0  0  0
    4.5450    2.1563    0.0000 C   0  0  0  0  0  0  0  0  0  0  0  0
    5.5320   -1.6624    0.0000 C   0  0  0  0  0  0  0  0  0  0  0  0
    7.2641   -1.6624    0.0000 C   0  0  0  0  0  0  0  0  0  0  0  0
    5.5320   -2.6624    0.0000 C   0  0  0  0  0  0  0  0  0  0  0  0
    4.6381   -1.1277    0.0000 C   0  0  0  0  0  0  0  0  0  0  0  0
    7.2641   -2.6624    0.0000 C   0  0  0  0  0  0  0  0  0  0  0  0
    4.6381   -3.1970    0.0000 C   0  0  0  0  0  0  0  0  0  0  0  0
    3.7320   -1.6415    0.0000 C   0  0  0  0  0  0  0  0  0  0  0  0
    3.7320   -2.6832    0.0000 C   0  0  0  0  0  0  0  0  0  0  0  0
    2.0000   -1.6349    0.0000 C   0  0  0  0  0  0  0  0  0  0  0  0
 12  1  1  1  0  0  0
  2 22  1  0  0  0  0
  2 24  1  0  0  0  0
  3  6  1  0  0  0  0
  3 10  1  0  0  0  0
  3 11  1  0  0  0  0
  4 18  2  0  0  0  0
  4 20  1  0  0  0  0
  5  7  1  0  0  0  0
  5  8  1  0  0  0  0
  5  9  1  0  0  0  0
  6  7  1  0  0  0  0
  6 12  1  0  0  0  0
  8 10  1  0  0  0  0
  8 13  1  6  0  0  0
  9 11  1  0  0  0  0
 12 14  1  0  0  0  0
 13 15  2  0  0  0  0
 14 16  2  0  0  0  0
 14 17  1  0  0  0  0
 16 18  1  0  0  0  0
 16 19  1  0  0  0  0
 17 20  2  0  0  0  0
 18 21  1  0  0  0  0
 19 22  2  0  0  0  0
 21 23  2  0  0  0  0
 22 23  1  0  0  0  0
M  END
> <PUBCHEM_COMPOUND_CID>
5484444

> <PUBCHEM_COMPOUND_CANONICALIZED>
1

> <PUBCHEM_CACTVS_COMPLEXITY>
457

> <PUBCHEM_CACTVS_HBOND_ACCEPTOR>
4

> <PUBCHEM_CACTVS_HBOND_DONOR>
1

> <PUBCHEM_CACTVS_ROTATABLE_BOND>
4

> <PUBCHEM_CACTVS_SUBSKEYS>
AAADceB7MAAAAAAAAAAAAAAAAAAAAAAAAAA8WLFiAAAAAACx8AAAHgAACAAADTzhngY+xvMIFgCgAzRnRACCiCAxIiAI2CA+bJgONuLEsZuEcChkwBHY+Aew4PwOgEABAAACAAAAgAIAAAQAAAAAAAAAAA==

> <PUBCHEM_IUPAC_OPENEYE_NAME>
(~{R})-(6-methoxy-4-quinolyl)-[(2~{S},5~{S})-5-vinylquinuclidin-2-yl]methanol

> <PUBCHEM_IUPAC_CAS_NAME>
(~{R})-[(2~{S},5~{S})-5-ethenyl-1-azabicyclo[2.2.2]octan-2-yl]-(6-methoxy-4-quinolinyl)methanol

> <PUBCHEM_IUPAC_NAME>
(~{R})-[(2~{S},5~{S})-5-ethenyl-1-azabicyclo[2.2.2]octan-2-yl]-(6-methoxyquinolin-4-yl)methanol

> <PUBCHEM_IUPAC_SYSTEMATIC_NAME>
(~{R})-[(2~{S},5~{S})-5-ethenyl-1-azabicyclo[2.2.2]octan-2-yl]-(6-methoxyquinolin-4-yl)methanol

> <PUBCHEM_IUPAC_TRADITIONAL_NAME>
(~{R})-(6-methoxy-4-quinolyl)-[(2~{S},5~{S})-5-vinylquinuclidin-2-yl]methanol

> <PUBCHEM_IUPAC_INCHI>
InChI=1S/C20H24N2O2/c1-3-13-12-22-9-7-14(13)10-19(22)20(23)16-6-8-21-18-5-4-15(24-2)11-17(16)18/h3-6,8,11,13-14,19-20,23H,1,7,9-10,12H2,2H3/t13-,14?,19+,20-/m1/s1

> <PUBCHEM_IUPAC_INCHIKEY>
LOUPRKONTZGTKE-WTLRTRQQSA-N

> <PUBCHEM_XLOGP3>
2.9

> <PUBCHEM_EXACT_MASS>
324.184

> <PUBCHEM_MOLECULAR_FORMULA>
C20H24N2O2

> <PUBCHEM_MOLECULAR_WEIGHT>
324.424

> <PUBCHEM_OPENEYE_CAN_SMILES>
COC1=CC2=C(C=CN=C2C=C1)C(C3CC4CCN3CC4C=C)O

> <PUBCHEM_OPENEYE_ISO_SMILES>
COC1=CC2=C(C=CN=C2C=C1)[C@H]([C@@H]3CC4CCN3C[C@H]4C=C)O

> <PUBCHEM_CACTVS_TPSA>
45.6

> <PUBCHEM_MONOISOTOPIC_WEIGHT>
324.184

> <PUBCHEM_TOTAL_CHARGE>
0

> <PUBCHEM_HEAVY_ATOM_COUNT>
24

> <PUBCHEM_ATOM_DEF_STEREO_COUNT>
3

> <PUBCHEM_ATOM_UDEF_STEREO_COUNT>
1

> <PUBCHEM_BOND_DEF_STEREO_COUNT>
0

> <PUBCHEM_BOND_UDEF_STEREO_COUNT>
0

> <PUBCHEM_ISOTOPIC_ATOM_COUNT>
0

> <PUBCHEM_COMPONENT_COUNT>
1

> <PUBCHEM_CACTVS_TAUTO_COUNT>
-1

> <PUBCHEM_COORDINATE_TYPE>
1
5
255

> <PUBCHEM_BONDANNOTATIONS>
12  1  5
14  16  8
14  17  8
16  18  8
16  19  8
17  20  8
18  21  8
19  22  8
21  23  8
22  23  8
4  18  8
4  20  8
5  9  3
6  26  6
8  13  6

$$$$
6129
  -OEChem-02061913062D

 15 16  0     0  0  0  0  0  0999 V2000
    3.7320   -0.5173    0.0000 O   0  0  0  0  0  0  0  0  0  0  0  0
    2.0000   -0.5173    0.0000 O   0  0  0  0  0  0  0  0  0  0  0  0
    2.8660   -2.0173    0.0000 N   0  0  0  0  0  0  0  0  0  0  0  0
    4.5981    0.9827    0.0000 C   0  0  0  0  0  0  0  0  0  0  0  0
    4.5981    1.9827    0.0000 C   0  0  0  0  0  0  0  0  0  0  0  0
    3.7320    0.4827    0.0000 C   0  0  0  0  0  0  0  0  0  0  0  0
    3.7320    2.4827    0.0000 C   0  0  0  0  0  0  0  0  0  0  0  0
    5.4920    0.4480    0.0000 C   0  0  0  0  0  0  0  0  0  0  0  0
    5.4920    2.5173    0.0000 C   0  0  0  0  0  0  0  0  0  0  0  0
    2.8660    0.9827    0.0000 C   0  0  0  0  0  0  0  0  0  0  0  0
    2.8660    1.9827    0.0000 C   0  0  0  0  0  0  0  0  0  0  0  0
    6.3981    0.9619    0.0000 C   0  0  0  0  0  0  0  0  0  0  0  0
    6.3981    2.0035    0.0000 C   0  0  0  0  0  0  0  0  0  0  0  0
    2.8660   -1.0173    0.0000 C   0  0  0  0  0  0  0  0  0  0  0  0
    2.0000   -2.5173    0.0000 C   0  0  0  0  0  0  0  0  0  0  0  0
  1  6  1  0  0  0  0
  1 14  1  0  0  0  0
  2 14  2  0  0  0  0
  3 14  1  0  0  0  0
  3 15  1  0  0  0  0
  4  5  1  0  0  0  0
  4  6  1  0  0  0  0
  4  8  2  0  0  0  0
  5  7  1  0  0  0  0
  5  9  2  0  0  0  0
  6 10  2  0  0  0  0
  7 11  2  0  0  0  0
  8 12  1  0  0  0  0
  9 13  1  0  0  0  0
 10 11  1  0  0  0  0
 12 13  2  0  0  0  0
M  END
> <PUBCHEM_COMPOUND_CID>
6129

> <PUBCHEM_COMPOUND_CANONICALIZED>
1

> <PUBCHEM_CACTVS_COMPLEXITY>
230

> <PUBCHEM_CACTVS_HBOND_ACCEPTOR>
2

> <PUBCHEM_CACTVS_HBOND_DONOR>
1

> <PUBCHEM_CACTVS_ROTATABLE_BOND>
2

> <PUBCHEM_CACTVS_SUBSKEYS>
AAADccByMAAAAAAAAAAAAAAAAAAAAAAAAAAwYAAAAAAAAADBUAAAHgAQAAAADASAmAQyDsLABACIAiBCGAACCAAgIAAIiIAOCIkMJiKEMRqIMiAkwhEIqAeAwLAOgAABAAAYAAAAAAIAADAAAAAAAAAAAA==

> <PUBCHEM_IUPAC_OPENEYE_NAME>
1-naphthyl ~{N}-methylcarbamate

> <PUBCHEM_IUPAC_CAS_NAME>
~{N}-methylcarbamic acid 1-naphthalenyl ester

> <PUBCHEM_IUPAC_NAME>
naphthalen-1-yl ~{N}-methylcarbamate

> <PUBCHEM_IUPAC_SYSTEMATIC_NAME>
naphthalen-1-yl ~{N}-methylcarbamate

> <PUBCHEM_IUPAC_TRADITIONAL_NAME>
~{N}-methylcarbamic acid 1-naphthyl ester

> <PUBCHEM_IUPAC_INCHI>
InChI=1S/C12H11NO2/c1-13-12(14)15-11-8-4-6-9-5-2-3-7-10(9)11/h2-8H,1H3,(H,13,14)

> <PUBCHEM_IUPAC_INCHIKEY>
CVXBEEMKQHEXEN-UHFFFAOYSA-N

> <PUBCHEM_XLOGP3>
2.4

> <PUBCHEM_EXACT_MASS>
201.079

> <PUBCHEM_MOLECULAR_FORMULA>
C12H11NO2

> <PUBCHEM_MOLECULAR_WEIGHT>
201.225

> <PUBCHEM_OPENEYE_CAN_SMILES>
CNC(=O)OC1=CC=CC2=CC=CC=C21

> <PUBCHEM_OPENEYE_ISO_SMILES>
CNC(=O)OC1=CC=CC2=CC=CC=C21

> <PUBCHEM_CACTVS_TPSA>
38.3

> <PUBCHEM_MONOISOTOPIC_WEIGHT>
201.079

> <PUBCHEM_TOTAL_CHARGE>
0

> <PUBCHEM_HEAVY_ATOM_COUNT>
15

> <PUBCHEM_ATOM_DEF_STEREO_COUNT>
0

> <PUBCHEM_ATOM_UDEF_STEREO_COUNT>
0

> <PUBCHEM_BOND_DEF_STEREO_COUNT>
0

> <PUBCHEM_BOND_UDEF_STEREO_COUNT>
0

> <PUBCHEM_ISOTOPIC_ATOM_COUNT>
0

> <PUBCHEM_COMPONENT_COUNT>
1

> <PUBCHEM_CACTVS_TAUTO_COUNT>
-1

> <PUBCHEM_COORDINATE_TYPE>
1
5
255

> <PUBCHEM_BONDANNOTATIONS>
10  11  8
12  13  8
4  5  8
4  6  8
4  8  8
5  7  8
5  9  8
6  10  8
7  11  8
8  12  8
9  13  8

$$$$
8635
  -OEChem-02061913072D

 11 11  0     0  0  0  0  0  0999 V2000
    5.1350    1.2500    0.0000 O   0  0  0  0  0  0  0  0  0  0  0  0
    3.4030    1.2500    0.0000 O   0  0  0  0  0  0  0  0  0  0  0  0
    2.5369   -0.2500    0.0000 N   0  0  0  0  0  0  0  0  0  0  0  0
    4.2690   -0.2500    0.0000 C   0  0  0  0  0  0  0  0  0  0  0  0
    3.4030   -0.7500    0.0000 C   0  0  0  0  0  0  0  0  0  0  0  0
    5.1350   -0.7500    0.0000 C   0  0  0  0  0  0  0  0  0  0  0  0
    3.4030   -1.7500    0.0000 C   0  0  0  0  0  0  0  0  0  0  0  0
    5.1350   -1.7500    0.0000 C   0  0  0  0  0  0  0  0  0  0  0  0
    4.2690   -2.2500    0.0000 C   0  0  0  0  0  0  0  0  0  0  0  0
    4.2690    0.7500    0.0000 C   0  0  0  0  0  0  0  0  0  0  0  0
    5.1350    2.2500    0.0000 C   0  0  0  0  0  0  0  0  0  0  0  0
  1 10  1  0  0  0  0
  1 11  1  0  0  0  0
  2 10  2  0  0  0  0
  3  5  1  0  0  0  0
  4  5  1  0  0  0  0
  4  6  2  0  0  0  0
  4 10  1  0  0  0  0
  5  7  2  0  0  0  0
  6  8  1  0  0  0  0
  7  9  1  0  0  0  0
  8  9  2  0  0  0  0
M  END
> <PUBCHEM_COMPOUND_CID>
8635

> <PUBCHEM_COMPOUND_CANONICALIZED>
1

> <PUBCHEM_CACTVS_COMPLEXITY>
147

> <PUBCHEM_CACTVS_HBOND_ACCEPTOR>
3

> <PUBCHEM_CACTVS_HBOND_DONOR>
1

> <PUBCHEM_CACTVS_ROTATABLE_BOND>
2

> <PUBCHEM_CACTVS_SUBSKEYS>
AAADccByMAAAAAAAAAAAAAAAAAAAAAAAAAAwAAAAAAAAAAABAAAAHgAQAAAADAiBmAIyyIBABACIAiTSSACCAAAkAgAIiAEAbMgIJjqAtZmAMYBm0AEI6ceYyCCOAAAAAAACAAAAAAAAAAQAAAAAAAAAAA==

> <PUBCHEM_IUPAC_OPENEYE_NAME>
methyl 2-aminobenzoate

> <PUBCHEM_IUPAC_CAS_NAME>
2-aminobenzoic acid methyl ester

> <PUBCHEM_IUPAC_NAME>
methyl 2-aminobenzoate

> <PUBCHEM_IUPAC_SYSTEMATIC_NAME>
methyl 2-azanylbenzoate

> <PUBCHEM_IUPAC_TRADITIONAL_NAME>
2-aminobenzoic acid methyl ester

> <PUBCHEM_IUPAC_INCHI>
InChI=1S/C8H9NO2/c1-11-8(10)6-4-2-3-5-7(6)9/h2-5H,9H2,1H3

> <PUBCHEM_IUPAC_INCHIKEY>
VAMXMNNIEUEQDV-UHFFFAOYSA-N

> <PUBCHEM_XLOGP3>
1.9

> <PUBCHEM_EXACT_MASS>
151.063

> <PUBCHEM_MOLECULAR_FORMULA>
C8H9NO2

> <PUBCHEM_MOLECULAR_WEIGHT>
151.165

> <PUBCHEM_OPENEYE_CAN_SMILES>
COC(=O)C1=CC=CC=C1N

> <PUBCHEM_OPENEYE_ISO_SMILES>
COC(=O)C1=CC=CC=C1N

> <PUBCHEM_CACTVS_TPSA>
52.3

> <PUBCHEM_MONOISOTOPIC_WEIGHT>
151.063

> <PUBCHEM_TOTAL_CHARGE>
0

> <PUBCHEM_HEAVY_ATOM_COUNT>
11

> <PUBCHEM_ATOM_DEF_STEREO_COUNT>
0

> <PUBCHEM_ATOM_UDEF_STEREO_COUNT>
0

> <PUBCHEM_BOND_DEF_STEREO_COUNT>
0

> <PUBCHEM_BOND_UDEF_STEREO_COUNT>
0

> <PUBCHEM_ISOTOPIC_ATOM_COUNT>
0

> <PUBCHEM_COMPONENT_COUNT>
1

> <PUBCHEM_CACTVS_TAUTO_COUNT>
-1

> <PUBCHEM_COORDINATE_TYPE>
1
5
255

> <PUBCHEM_BONDANNOTATIONS>
4  5  8
4  6  8
5  7  8
6  8  8
7  9  8
8  9  8

$$$$
7361
  -OEChem-02061913072D

  7  7  0     0  0  0  0  0  0999 V2000
    2.8090   -0.3239    0.0000 O   0  0  0  0  0  0  0  0  0  0  0  0
    4.7770   -1.0233    0.0000 O   0  0  0  0  0  0  0  0  0  0  0  0
    3.6180    0.2638    0.0000 C   0  0  0  0  0  0  0  0  0  0  0  0
    4.5691   -0.0452    0.0000 C   0  0  0  0  0  0  0  0  0  0  0  0
    3.3090    1.2149    0.0000 C   0  0  0  0  0  0  0  0  0  0  0  0
    2.3090    1.2149    0.0000 C   0  0  0  0  0  0  0  0  0  0  0  0
    2.0000    0.2638    0.0000 C   0  0  0  0  0  0  0  0  0  0  0  0
  1  3  1  0  0  0  0
  1  7  1  0  0  0  0
  2  4  1  0  0  0  0
  3  4  1  0  0  0  0
  3  5  2  0  0  0  0
  5  6  1  0  0  0  0
  6  7  2  0  0  0  0
M  END
> <PUBCHEM_COMPOUND_CID>
7361

> <PUBCHEM_COMPOUND_CANONICALIZED>
1

> <PUBCHEM_CACTVS_COMPLEXITY>
54

> <PUBCHEM_CACTVS_HBOND_ACCEPTOR>
2

> <PUBCHEM_CACTVS_HBOND_DONOR>
1

> <PUBCHEM_CACTVS_ROTATABLE_BOND>
1

> <PUBCHEM_CACTVS_SUBSKEYS>
AAADcYBgMAAAAAAAAAAAAAAAAAAAASAAAAAAAAAAAAAAAAABgAAAGgAACAAACASgkAIwBIAABkCIAKhSgAICCAAkIAAIiAFGCMgNNjKENRqCWSCkwBELuYaIJAAAAAAAAAAAAAAAAAAAAAAAAAAAAAAAAA==

> <PUBCHEM_IUPAC_OPENEYE_NAME>
2-furylmethanol

> <PUBCHEM_IUPAC_CAS_NAME>
2-furanylmethanol

> <PUBCHEM_IUPAC_NAME>
furan-2-ylmethanol

> <PUBCHEM_IUPAC_SYSTEMATIC_NAME>
furan-2-ylmethanol

> <PUBCHEM_IUPAC_TRADITIONAL_NAME>
2-furylmethanol

> <PUBCHEM_IUPAC_INCHI>
InChI=1S/C5H6O2/c6-4-5-2-1-3-7-5/h1-3,6H,4H2

> <PUBCHEM_IUPAC_INCHIKEY>
XPFVYQJUAUNWIW-UHFFFAOYSA-N

> <PUBCHEM_XLOGP3>
0.3

> <PUBCHEM_EXACT_MASS>
98.037

> <PUBCHEM_MOLECULAR_FORMULA>
C5H6O2

> <PUBCHEM_MOLECULAR_WEIGHT>
98.101

> <PUBCHEM_OPENEYE_CAN_SMILES>
C1=COC(=C1)CO

> <PUBCHEM_OPENEYE_ISO_SMILES>
C1=COC(=C1)CO

> <PUBCHEM_CACTVS_TPSA>
33.4

> <PUBCHEM_MONOISOTOPIC_WEIGHT>
98.037

> <PUBCHEM_TOTAL_CHARGE>
0

> <PUBCHEM_HEAVY_ATOM_COUNT>
7

> <PUBCHEM_ATOM_DEF_STEREO_COUNT>
0

> <PUBCHEM_ATOM_UDEF_STEREO_COUNT>
0

> <PUBCHEM_BOND_DEF_STEREO_COUNT>
0

> <PUBCHEM_BOND_UDEF_STEREO_COUNT>
0

> <PUBCHEM_ISOTOPIC_ATOM_COUNT>
0

> <PUBCHEM_COMPONENT_COUNT>
1

> <PUBCHEM_CACTVS_TAUTO_COUNT>
-1

> <PUBCHEM_COORDINATE_TYPE>
1
5
255

> <PUBCHEM_BONDANNOTATIONS>
1  3  8
1  7  8
3  5  8
5  6  8
6  7  8

$$$$
33599
  -OEChem-02061913062D

 32 32  0     0  0  0  0  0  0999 V2000
    9.7942   -3.7500    0.0000 O   0  0  0  0  0  0  0  0  0  0  0  0
   13.2583   -1.7500    0.0000 O   0  0  0  0  0  0  0  0  0  0  0  0
   10.6603   -2.2500    0.0000 O   0  0  0  0  0  0  0  0  0  0  0  0
   11.5263   -1.7500    0.0000 O   0  0  0  0  0  0  0  0  0  0  0  0
   15.8564    2.7500    0.0000 C   0  0  0  0  0  0  0  0  0  0  0  0
    4.5981   -3.7500    0.0000 C   0  0  0  0  0  0  0  0  0  0  0  0
    3.7320   -3.2500    0.0000 C   0  0  0  0  0  0  0  0  0  0  0  0
   15.8564    3.7500    0.0000 C   0  0  0  0  0  0  0  0  0  0  0  0
    5.4641   -3.2500    0.0000 C   0  0  0  0  0  0  0  0  0  0  0  0
   14.9904    2.2500    0.0000 C   0  0  0  0  0  0  0  0  0  0  0  0
    2.8660   -3.7500    0.0000 C   0  0  0  0  0  0  0  0  0  0  0  0
   16.7224    4.2500    0.0000 C   0  0  0  0  0  0  0  0  0  0  0  0
    6.3301   -3.7500    0.0000 C   0  0  0  0  0  0  0  0  0  0  0  0
   14.9904    1.2500    0.0000 C   0  0  0  0  0  0  0  0  0  0  0  0
   14.1244    0.7500    0.0000 C   0  0  0  0  0  0  0  0  0  0  0  0
    7.1962   -3.2500    0.0000 C   0  0  0  0  0  0  0  0  0  0  0  0
    8.0622   -3.7500    0.0000 C   0  0  0  0  0  0  0  0  0  0  0  0
   14.1244   -0.2500    0.0000 C   0  0  0  0  0  0  0  0  0  0  0  0
   16.7224    5.2500    0.0000 C   0  0  0  0  0  0  0  0  0  0  0  0
   17.5885    3.7500    0.0000 C   0  0  0  0  0  0  0  0  0  0  0  0
    2.0000   -3.2500    0.0000 C   0  0  0  0  0  0  0  0  0  0  0  0
    2.8660   -4.7500    0.0000 C   0  0  0  0  0  0  0  0  0  0  0  0
    8.9282   -3.2500    0.0000 C   0  0  0  0  0  0  0  0  0  0  0  0
   13.2583   -0.7500    0.0000 C   0  0  0  0  0  0  0  0  0  0  0  0
   12.3923   -2.2500    0.0000 C   0  0  0  0  0  0  0  0  0  0  0  0
   10.6603   -3.2500    0.0000 C   0  0  0  0  0  0  0  0  0  0  0  0
   12.3923   -3.2500    0.0000 C   0  0  0  0  0  0  0  0  0  0  0  0
   11.5263   -3.7500    0.0000 C   0  0  0  0  0  0  0  0  0  0  0  0
   11.5263   -4.7500    0.0000 C   0  0  0  0  0  0  0  0  0  0  0  0
   13.2583   -3.7500    0.0000 C   0  0  0  0  0  0  0  0  0  0  0  0
   12.3923   -5.2500    0.0000 C   0  0  0  0  0  0  0  0  0  0  0  0
   13.2583   -4.7500    0.0000 C   0  0  0  0  0  0  0  0  0  0  0  0
  1 23  1  0  0  0  0
  1 26  1  0  0  0  0
  2 24  1  0  0  0  0
  2 25  1  0  0  0  0
  3 26  2  0  0  0  0
  4 25  2  0  0  0  0
  5  8  1  0  0  0  0
  5 10  1  0  0  0  0
  6  7  1  0  0  0  0
  6  9  1  0  0  0  0
  7 11  1  0  0  0  0
  8 12  1  0  0  0  0
  9 13  1  0  0  0  0
 10 14  1  0  0  0  0
 11 21  1  0  0  0  0
 11 22  1  0  0  0  0
 12 19  1  0  0  0  0
 12 20  1  0  0  0  0
 13 16  1  0  0  0  0
 14 15  1  0  0  0  0
 15 18  1  0  0  0  0
 16 17  1  0  0  0  0
 17 23  1  0  0  0  0
 18 24  1  0  0  0  0
 25 27  1  0  0  0  0
 26 28  1  0  0  0  0
 27 28  1  0  0  0  0
 27 30  2  0  0  0  0
 28 29  2  0  0  0  0
 29 31  1  0  0  0  0
 30 32  1  0  0  0  0
 31 32  2  0  0  0  0
M  END
> <PUBCHEM_COMPOUND_CID>
33599

> <PUBCHEM_COMPOUND_CANONICALIZED>
1

> <PUBCHEM_CACTVS_COMPLEXITY>
442

> <PUBCHEM_CACTVS_HBOND_ACCEPTOR>
4

> <PUBCHEM_CACTVS_HBOND_DONOR>
0

> <PUBCHEM_CACTVS_ROTATABLE_BOND>
20

> <PUBCHEM_CACTVS_SUBSKEYS>
AAADcfB4OAAAAAAAAAAAAAAAAAAAAAAAAAAwAAAAAAAAAAABAAAAGgAAAAAADQCgmAIyCIAABACIAiDSCAACAAAkAAAIiAEACMgIJjKANRiCMQAkwAEIqYfLyOCOgAAAAAAQAAAAAAAAACAAAAAAAAAAAA==

> <PUBCHEM_IUPAC_OPENEYE_NAME>
bis(8-methylnonyl) benzene-1,2-dicarboxylate

> <PUBCHEM_IUPAC_CAS_NAME>
benzene-1,2-dicarboxylic acid bis(8-methylnonyl) ester

> <PUBCHEM_IUPAC_NAME>
bis(8-methylnonyl) benzene-1,2-dicarboxylate

> <PUBCHEM_IUPAC_SYSTEMATIC_NAME>
bis(8-methylnonyl) benzene-1,2-dicarboxylate

> <PUBCHEM_IUPAC_TRADITIONAL_NAME>
benzene-1,2-dicarboxylic acid bis(8-methylnonyl) ester

> <PUBCHEM_IUPAC_INCHI>
InChI=1S/C28H46O4/c1-23(2)17-11-7-5-9-15-21-31-27(29)25-19-13-14-20-26(25)28(30)32-22-16-10-6-8-12-18-24(3)4/h13-14,19-20,23-24H,5-12,15-18,21-22H2,1-4H3

> <PUBCHEM_IUPAC_INCHIKEY>
ZVFDTKUVRCTHQE-UHFFFAOYSA-N

> <PUBCHEM_XLOGP3>
10.6

> <PUBCHEM_EXACT_MASS>
446.34

> <PUBCHEM_MOLECULAR_FORMULA>
C28H46O4

> <PUBCHEM_MOLECULAR_WEIGHT>
446.672

> <PUBCHEM_OPENEYE_CAN_SMILES>
CC(C)CCCCCCCOC(=O)C1=CC=CC=C1C(=O)OCCCCCCCC(C)C

> <PUBCHEM_OPENEYE_ISO_SMILES>
CC(C)CCCCCCCOC(=O)C1=CC=CC=C1C(=O)OCCCCCCCC(C)C

> <PUBCHEM_CACTVS_TPSA>
52.6

> <PUBCHEM_MONOISOTOPIC_WEIGHT>
446.34

> <PUBCHEM_TOTAL_CHARGE>
0

> <PUBCHEM_HEAVY_ATOM_COUNT>
32

> <PUBCHEM_ATOM_DEF_STEREO_COUNT>
0

> <PUBCHEM_ATOM_UDEF_STEREO_COUNT>
0

> <PUBCHEM_BOND_DEF_STEREO_COUNT>
0

> <PUBCHEM_BOND_UDEF_STEREO_COUNT>
0

> <PUBCHEM_ISOTOPIC_ATOM_COUNT>
0

> <PUBCHEM_COMPONENT_COUNT>
1

> <PUBCHEM_CACTVS_TAUTO_COUNT>
-1

> <PUBCHEM_COORDINATE_TYPE>
1
5
255

> <PUBCHEM_BONDANNOTATIONS>
27  28  8
27  30  8
28  29  8
29  31  8
30  32  8
31  32  8

$$$$
6521
  -OEChem-02061913062D

 17 18  0     0  0  0  0  0  0999 V2000
    4.3100   -0.0000    0.0000 O   0  0  0  0  0  0  0  0  0  0  0  0
    5.3100    0.0000    0.0000 O   0  0  0  0  0  0  0  0  0  0  0  0
    3.3100   -0.0000    0.0000 O   0  0  0  0  0  0  0  0  0  0  0  0
    6.3100    0.0000    0.0000 O   0  0  0  0  0  0  0  0  0  0  0  0
    2.3100   -0.0000    0.0000 O   0  0  0  0  0  0  0  0  0  0  0  0
    3.8100   -0.8660    0.0000 C   0  0  0  0  0  0  0  0  0  0  0  0
    5.8100    0.8660    0.0000 C   0  0  0  0  0  0  0  0  0  0  0  0
    2.9440   -1.3660    0.0000 C   0  0  0  0  0  0  0  0  0  0  0  0
    4.6760   -1.3660    0.0000 C   0  0  0  0  0  0  0  0  0  0  0  0
    4.9440    1.3660    0.0000 C   0  0  0  0  0  0  0  0  0  0  0  0
    6.6760    1.3660    0.0000 C   0  0  0  0  0  0  0  0  0  0  0  0
    2.9440   -2.3660    0.0000 C   0  0  0  0  0  0  0  0  0  0  0  0
    4.6760   -2.3660    0.0000 C   0  0  0  0  0  0  0  0  0  0  0  0
    6.6760    2.3660    0.0000 C   0  0  0  0  0  0  0  0  0  0  0  0
    4.9440    2.3660    0.0000 C   0  0  0  0  0  0  0  0  0  0  0  0
    3.8100   -2.8660    0.0000 C   0  0  0  0  0  0  0  0  0  0  0  0
    5.8100    2.8660    0.0000 C   0  0  0  0  0  0  0  0  0  0  0  0
  1  2  1  0  0  0  0
  1  6  1  0  0  0  0
  2  7  1  0  0  0  0
  3  5  1  0  0  0  0
  3  6  1  0  0  0  0
  4  7  1  0  0  0  0
  6  8  1  0  0  0  0
  6  9  1  0  0  0  0
  7 10  1  0  0  0  0
  7 11  1  0  0  0  0
  8 12  1  0  0  0  0
  9 13  1  0  0  0  0
 10 15  1  0  0  0  0
 11 14  1  0  0  0  0
 12 16  1  0  0  0  0
 13 16  1  0  0  0  0
 14 17  1  0  0  0  0
 15 17  1  0  0  0  0
M  END
> <PUBCHEM_COMPOUND_CID>
6521

> <PUBCHEM_COMPOUND_CANONICALIZED>
1

> <PUBCHEM_CACTVS_COMPLEXITY>
231

> <PUBCHEM_CACTVS_HBOND_ACCEPTOR>
5

> <PUBCHEM_CACTVS_HBOND_DONOR>
2

> <PUBCHEM_CACTVS_ROTATABLE_BOND>
4

> <PUBCHEM_CACTVS_SUBSKEYS>
AAADceBwOAAAAAAAAAAAAAAAAAAAAAAAAAAwYAAAAAAAAAAAAAAAGgAADAAACASAgAAACAAAAgAAAAAAAAAAAAAAAAAAAAAAAAAAAAIAAAAAQAAEAAAAAAGAQAAAAAAAAAAAAAAAAAAAAAAAAAAAAAAAAA==

> <PUBCHEM_IUPAC_OPENEYE_NAME>
1-(1-hydroperoxycyclohexyl)peroxycyclohexanol

> <PUBCHEM_IUPAC_CAS_NAME>
1-(1-hydroperoxycyclohexyl)dioxy-1-cyclohexanol

> <PUBCHEM_IUPAC_NAME>
1-(1-hydroperoxycyclohexyl)peroxycyclohexan-1-ol

> <PUBCHEM_IUPAC_SYSTEMATIC_NAME>
1-[1-(dioxidanyl)cyclohexyl]peroxycyclohexan-1-ol

> <PUBCHEM_IUPAC_TRADITIONAL_NAME>
1-(1-hydroperoxycyclohexyl)peroxycyclohexanol

> <PUBCHEM_IUPAC_INCHI>
InChI=1S/C12H22O5/c13-11(7-3-1-4-8-11)16-17-12(15-14)9-5-2-6-10-12/h13-14H,1-10H2

> <PUBCHEM_IUPAC_INCHIKEY>
UICXTANXZJJIBC-UHFFFAOYSA-N

> <PUBCHEM_XLOGP3_AA>
2.3

> <PUBCHEM_EXACT_MASS>
246.147

> <PUBCHEM_MOLECULAR_FORMULA>
C12H22O5

> <PUBCHEM_MOLECULAR_WEIGHT>
246.303

> <PUBCHEM_OPENEYE_CAN_SMILES>
C1CCC(CC1)(O)OOC2(CCCCC2)OO

> <PUBCHEM_OPENEYE_ISO_SMILES>
C1CCC(CC1)(O)OOC2(CCCCC2)OO

> <PUBCHEM_CACTVS_TPSA>
68.2

> <PUBCHEM_MONOISOTOPIC_WEIGHT>
246.147

> <PUBCHEM_TOTAL_CHARGE>
0

> <PUBCHEM_HEAVY_ATOM_COUNT>
17

> <PUBCHEM_ATOM_DEF_STEREO_COUNT>
0

> <PUBCHEM_ATOM_UDEF_STEREO_COUNT>
0

> <PUBCHEM_BOND_DEF_STEREO_COUNT>
0

> <PUBCHEM_BOND_UDEF_STEREO_COUNT>
0

> <PUBCHEM_ISOTOPIC_ATOM_COUNT>
0

> <PUBCHEM_COMPONENT_COUNT>
1

> <PUBCHEM_CACTVS_TAUTO_COUNT>
-1

> <PUBCHEM_COORDINATE_TYPE>
1
5
255

$$$$
6115
  -OEChem-02061913062D

  7  7  0     0  0  0  0  0  0999 V2000
    2.8660    1.3450    0.0000 N   0  0  0  0  0  0  0  0  0  0  0  0
    2.8660    0.3450    0.0000 C   0  0  0  0  0  0  0  0  0  0  0  0
    2.0000   -0.1550    0.0000 C   0  0  0  0  0  0  0  0  0  0  0  0
    3.7320   -0.1550    0.0000 C   0  0  0  0  0  0  0  0  0  0  0  0
    2.0000   -1.1550    0.0000 C   0  0  0  0  0  0  0  0  0  0  0  0
    3.7320   -1.1550    0.0000 C   0  0  0  0  0  0  0  0  0  0  0  0
    2.8660   -1.6550    0.0000 C   0  0  0  0  0  0  0  0  0  0  0  0
  1  2  1  0  0  0  0
  2  3  2  0  0  0  0
  2  4  1  0  0  0  0
  3  5  1  0  0  0  0
  4  6  2  0  0  0  0
  5  7  2  0  0  0  0
  6  7  1  0  0  0  0
M  END
> <PUBCHEM_COMPOUND_CID>
6115

> <PUBCHEM_COMPOUND_CANONICALIZED>
1

> <PUBCHEM_CACTVS_COMPLEXITY>
46.1

> <PUBCHEM_CACTVS_HBOND_ACCEPTOR>
1

> <PUBCHEM_CACTVS_HBOND_DONOR>
1

> <PUBCHEM_CACTVS_ROTATABLE_BOND>
0

> <PUBCHEM_CACTVS_SUBSKEYS>
AAADcYBiAAAAAAAAAAAAAAAAAAAAAAAAAAAwAAAAAAAAAAABAAAAHAAQAAAACAiBEAAwwIBAAACAACRCQACCAAAgAgAIiAAAZIgIICKAkZGAIABgkAAIyAcQAAAAAAAAAAAAAAAAAAAAAAAAAAAAAAAAAA==

> <PUBCHEM_IUPAC_OPENEYE_NAME>
aniline

> <PUBCHEM_IUPAC_CAS_NAME>
aniline

> <PUBCHEM_IUPAC_NAME>
aniline

> <PUBCHEM_IUPAC_SYSTEMATIC_NAME>
aniline

> <PUBCHEM_IUPAC_TRADITIONAL_NAME>
phenylamine

> <PUBCHEM_IUPAC_INCHI>
InChI=1S/C6H7N/c7-6-4-2-1-3-5-6/h1-5H,7H2

> <PUBCHEM_IUPAC_INCHIKEY>
PAYRUJLWNCNPSJ-UHFFFAOYSA-N

> <PUBCHEM_XLOGP3>
0.9

> <PUBCHEM_EXACT_MASS>
93.058

> <PUBCHEM_MOLECULAR_FORMULA>
C6H7N

> <PUBCHEM_MOLECULAR_WEIGHT>
93.129

> <PUBCHEM_OPENEYE_CAN_SMILES>
C1=CC=C(C=C1)N

> <PUBCHEM_OPENEYE_ISO_SMILES>
C1=CC=C(C=C1)N

> <PUBCHEM_CACTVS_TPSA>
26

> <PUBCHEM_MONOISOTOPIC_WEIGHT>
93.058

> <PUBCHEM_TOTAL_CHARGE>
0

> <PUBCHEM_HEAVY_ATOM_COUNT>
7

> <PUBCHEM_ATOM_DEF_STEREO_COUNT>
0

> <PUBCHEM_ATOM_UDEF_STEREO_COUNT>
0

> <PUBCHEM_BOND_DEF_STEREO_COUNT>
0

> <PUBCHEM_BOND_UDEF_STEREO_COUNT>
0

> <PUBCHEM_ISOTOPIC_ATOM_COUNT>
0

> <PUBCHEM_COMPONENT_COUNT>
1

> <PUBCHEM_CACTVS_TAUTO_COUNT>
-1

> <PUBCHEM_COORDINATE_TYPE>
1
5
255

> <PUBCHEM_BONDANNOTATIONS>
2  3  8
2  4  8
3  5  8
4  6  8
5  7  8
6  7  8

$$$$
31237
  -OEChem-02061913062D

 18 18  0     0  0  0  0  0  0999 V2000
    5.4641    1.0000    0.0000 C   0  0  0  0  0  0  0  0  0  0  0  0
    4.5981    0.5000    0.0000 C   0  0  0  0  0  0  0  0  0  0  0  0
    5.4641    2.0000    0.0000 C   0  0  0  0  0  0  0  0  0  0  0  0
    4.5981   -0.5000    0.0000 C   0  0  0  0  0  0  0  0  0  0  0  0
    6.3301    2.5000    0.0000 C   0  0  0  0  0  0  0  0  0  0  0  0
    3.7320   -1.0000    0.0000 C   0  0  0  0  0  0  0  0  0  0  0  0
    6.3301    3.5000    0.0000 C   0  0  0  0  0  0  0  0  0  0  0  0
    3.7320   -2.0000    0.0000 C   0  0  0  0  0  0  0  0  0  0  0  0
    7.1962    4.0000    0.0000 C   0  0  0  0  0  0  0  0  0  0  0  0
    2.8660   -2.5000    0.0000 C   0  0  0  0  0  0  0  0  0  0  0  0
    7.1962    5.0000    0.0000 C   0  0  0  0  0  0  0  0  0  0  0  0
    2.8660   -3.5000    0.0000 C   0  0  0  0  0  0  0  0  0  0  0  0
    8.0622    5.5000    0.0000 C   0  0  0  0  0  0  0  0  0  0  0  0
    3.7320   -4.0000    0.0000 C   0  0  0  0  0  0  0  0  0  0  0  0
    2.0000   -4.0000    0.0000 C   0  0  0  0  0  0  0  0  0  0  0  0
    3.7320   -5.0000    0.0000 C   0  0  0  0  0  0  0  0  0  0  0  0
    2.0000   -5.0000    0.0000 C   0  0  0  0  0  0  0  0  0  0  0  0
    2.8660   -5.5000    0.0000 C   0  0  0  0  0  0  0  0  0  0  0  0
  1  2  1  0  0  0  0
  1  3  1  0  0  0  0
  2  4  1  0  0  0  0
  3  5  1  0  0  0  0
  4  6  1  0  0  0  0
  5  7  1  0  0  0  0
  6  8  1  0  0  0  0
  7  9  1  0  0  0  0
  8 10  1  0  0  0  0
  9 11  1  0  0  0  0
 10 12  1  0  0  0  0
 11 13  1  0  0  0  0
 12 14  2  0  0  0  0
 12 15  1  0  0  0  0
 14 16  1  0  0  0  0
 15 17  2  0  0  0  0
 16 18  2  0  0  0  0
 17 18  1  0  0  0  0
M  END
> <PUBCHEM_COMPOUND_CID>
31237

> <PUBCHEM_COMPOUND_CANONICALIZED>
1

> <PUBCHEM_CACTVS_COMPLEXITY>
155

> <PUBCHEM_CACTVS_HBOND_ACCEPTOR>
0

> <PUBCHEM_CACTVS_HBOND_DONOR>
0

> <PUBCHEM_CACTVS_ROTATABLE_BOND>
11

> <PUBCHEM_CACTVS_SUBSKEYS>
AAADceB4AAAAAAAAAAAAAAAAAAAAAAAAAAAwAAAAAAAAAAABAAAAGAAAAAAADACAGAAyAIAAAACAAiBCAAACAAAgAAAIiAAAAIgIICKAERCAIAAggAAIiAcAgMAOAAAAAAAAAAAAAAAAAAAAAAAAAAAAAA==

> <PUBCHEM_IUPAC_OPENEYE_NAME>
dodecylbenzene

> <PUBCHEM_IUPAC_CAS_NAME>
dodecylbenzene

> <PUBCHEM_IUPAC_NAME>
dodecylbenzene

> <PUBCHEM_IUPAC_SYSTEMATIC_NAME>
dodecylbenzene

> <PUBCHEM_IUPAC_TRADITIONAL_NAME>
laurylbenzene

> <PUBCHEM_IUPAC_INCHI>
InChI=1S/C18H30/c1-2-3-4-5-6-7-8-9-10-12-15-18-16-13-11-14-17-18/h11,13-14,16-17H,2-10,12,15H2,1H3

> <PUBCHEM_IUPAC_INCHIKEY>
KWKXNDCHNDYVRT-UHFFFAOYSA-N

> <PUBCHEM_XLOGP3>
8.8

> <PUBCHEM_EXACT_MASS>
246.235

> <PUBCHEM_MOLECULAR_FORMULA>
C18H30

> <PUBCHEM_MOLECULAR_WEIGHT>
246.438

> <PUBCHEM_OPENEYE_CAN_SMILES>
CCCCCCCCCCCCC1=CC=CC=C1

> <PUBCHEM_OPENEYE_ISO_SMILES>
CCCCCCCCCCCCC1=CC=CC=C1

> <PUBCHEM_CACTVS_TPSA>
0

> <PUBCHEM_MONOISOTOPIC_WEIGHT>
246.235

> <PUBCHEM_TOTAL_CHARGE>
0

> <PUBCHEM_HEAVY_ATOM_COUNT>
18

> <PUBCHEM_ATOM_DEF_STEREO_COUNT>
0

> <PUBCHEM_ATOM_UDEF_STEREO_COUNT>
0

> <PUBCHEM_BOND_DEF_STEREO_COUNT>
0

> <PUBCHEM_BOND_UDEF_STEREO_COUNT>
0

> <PUBCHEM_ISOTOPIC_ATOM_COUNT>
0

> <PUBCHEM_COMPONENT_COUNT>
1

> <PUBCHEM_CACTVS_TAUTO_COUNT>
-1

> <PUBCHEM_COORDINATE_TYPE>
1
5
255

> <PUBCHEM_BONDANNOTATIONS>
12  14  8
12  15  8
14  16  8
15  17  8
16  18  8
17  18  8

$$$$
6623
  -OEChem-02061913062D

 17 18  0     0  0  0  0  0  0999 V2000
    3.0000    4.0000    0.0000 O   0  0  0  0  0  0  0  0  0  0  0  0
    3.0000   -4.0000    0.0000 O   0  0  0  0  0  0  0  0  0  0  0  0
    3.0000    0.0000    0.0000 C   0  0  0  0  0  0  0  0  0  0  0  0
    3.0000   -1.0000    0.0000 C   0  0  0  0  0  0  0  0  0  0  0  0
    3.0000    1.0000    0.0000 C   0  0  0  0  0  0  0  0  0  0  0  0
    4.0000    0.0000    0.0000 C   0  0  0  0  0  0  0  0  0  0  0  0
    2.0000    0.0000    0.0000 C   0  0  0  0  0  0  0  0  0  0  0  0
    3.8660    1.5000    0.0000 C   0  0  0  0  0  0  0  0  0  0  0  0
    2.1340   -1.5000    0.0000 C   0  0  0  0  0  0  0  0  0  0  0  0
    3.8660   -1.5000    0.0000 C   0  0  0  0  0  0  0  0  0  0  0  0
    2.1340    1.5000    0.0000 C   0  0  0  0  0  0  0  0  0  0  0  0
    2.1340   -2.5000    0.0000 C   0  0  0  0  0  0  0  0  0  0  0  0
    3.8660    2.5000    0.0000 C   0  0  0  0  0  0  0  0  0  0  0  0
    3.8660   -2.5000    0.0000 C   0  0  0  0  0  0  0  0  0  0  0  0
    2.1340    2.5000    0.0000 C   0  0  0  0  0  0  0  0  0  0  0  0
    3.0000   -3.0000    0.0000 C   0  0  0  0  0  0  0  0  0  0  0  0
    3.0000    3.0000    0.0000 C   0  0  0  0  0  0  0  0  0  0  0  0
  1 17  1  0  0  0  0
  2 16  1  0  0  0  0
  3  4  1  0  0  0  0
  3  5  1  0  0  0  0
  3  6  1  0  0  0  0
  3  7  1  0  0  0  0
  4  9  2  0  0  0  0
  4 10  1  0  0  0  0
  5  8  2  0  0  0  0
  5 11  1  0  0  0  0
  8 13  1  0  0  0  0
  9 12  1  0  0  0  0
 10 14  2  0  0  0  0
 11 15  2  0  0  0  0
 12 16  2  0  0  0  0
 13 17  2  0  0  0  0
 14 16  1  0  0  0  0
 15 17  1  0  0  0  0
M  END
> <PUBCHEM_COMPOUND_CID>
6623

> <PUBCHEM_COMPOUND_CANONICALIZED>
1

> <PUBCHEM_CACTVS_COMPLEXITY>
209

> <PUBCHEM_CACTVS_HBOND_ACCEPTOR>
2

> <PUBCHEM_CACTVS_HBOND_DONOR>
2

> <PUBCHEM_CACTVS_ROTATABLE_BOND>
2

> <PUBCHEM_CACTVS_SUBSKEYS>
AAADceBwMAAAAAAAAAAAAAAAAAAAAAAAAAAwYAAAAAAAAAABQAAAGgAACAAADgSAmAAyBoAAAgCAAiBCAAACAAAgIAAIiAAGCIgIJiKCERKAcAAkwBEImAeAwPAPoAAAAAAAAABAAAAAAAAAAAAAAAAAAA==

> <PUBCHEM_IUPAC_OPENEYE_NAME>
4-[1-(4-hydroxyphenyl)-1-methyl-ethyl]phenol

> <PUBCHEM_IUPAC_CAS_NAME>
4-[2-(4-hydroxyphenyl)propan-2-yl]phenol

> <PUBCHEM_IUPAC_NAME>
4-[2-(4-hydroxyphenyl)propan-2-yl]phenol

> <PUBCHEM_IUPAC_SYSTEMATIC_NAME>
4-[2-(4-hydroxyphenyl)propan-2-yl]phenol

> <PUBCHEM_IUPAC_TRADITIONAL_NAME>
4-[1-(4-hydroxyphenyl)-1-methyl-ethyl]phenol

> <PUBCHEM_IUPAC_INCHI>
InChI=1S/C15H16O2/c1-15(2,11-3-7-13(16)8-4-11)12-5-9-14(17)10-6-12/h3-10,16-17H,1-2H3

> <PUBCHEM_IUPAC_INCHIKEY>
IISBACLAFKSPIT-UHFFFAOYSA-N

> <PUBCHEM_XLOGP3>
3.3

> <PUBCHEM_EXACT_MASS>
228.115

> <PUBCHEM_MOLECULAR_FORMULA>
C15H16O2

> <PUBCHEM_MOLECULAR_WEIGHT>
228.291

> <PUBCHEM_OPENEYE_CAN_SMILES>
CC(C)(C1=CC=C(C=C1)O)C2=CC=C(C=C2)O

> <PUBCHEM_OPENEYE_ISO_SMILES>
CC(C)(C1=CC=C(C=C1)O)C2=CC=C(C=C2)O

> <PUBCHEM_CACTVS_TPSA>
40.5

> <PUBCHEM_MONOISOTOPIC_WEIGHT>
228.115

> <PUBCHEM_TOTAL_CHARGE>
0

> <PUBCHEM_HEAVY_ATOM_COUNT>
17

> <PUBCHEM_ATOM_DEF_STEREO_COUNT>
0

> <PUBCHEM_ATOM_UDEF_STEREO_COUNT>
0

> <PUBCHEM_BOND_DEF_STEREO_COUNT>
0

> <PUBCHEM_BOND_UDEF_STEREO_COUNT>
0

> <PUBCHEM_ISOTOPIC_ATOM_COUNT>
0

> <PUBCHEM_COMPONENT_COUNT>
1

> <PUBCHEM_CACTVS_TAUTO_COUNT>
-1

> <PUBCHEM_COORDINATE_TYPE>
1
5
255

> <PUBCHEM_BONDANNOTATIONS>
10  14  8
11  15  8
12  16  8
13  17  8
14  16  8
15  17  8
4  10  8
4  9  8
5  11  8
5  8  8
8  13  8
9  12  8

$$$$
637511
  -OEChem-02061913102D

 10 10  0     0  0  0  0  0  0999 V2000
    4.5981    2.5000    0.0000 O   0  0  0  0  0  0  0  0  0  0  0  0
    2.8660   -0.5000    0.0000 C   0  0  0  0  0  0  0  0  0  0  0  0
    2.0000   -1.0000    0.0000 C   0  0  0  0  0  0  0  0  0  0  0  0
    3.7320   -1.0000    0.0000 C   0  0  0  0  0  0  0  0  0  0  0  0
    2.0000   -2.0000    0.0000 C   0  0  0  0  0  0  0  0  0  0  0  0
    3.7320   -2.0000    0.0000 C   0  0  0  0  0  0  0  0  0  0  0  0
    2.8660    0.5000    0.0000 C   0  0  0  0  0  0  0  0  0  0  0  0
    2.8660   -2.5000    0.0000 C   0  0  0  0  0  0  0  0  0  0  0  0
    3.7320    1.0000    0.0000 C   0  0  0  0  0  0  0  0  0  0  0  0
    3.7320    2.0000    0.0000 C   0  0  0  0  0  0  0  0  0  0  0  0
  1 10  2  0  0  0  0
  2  3  2  0  0  0  0
  2  4  1  0  0  0  0
  2  7  1  0  0  0  0
  3  5  1  0  0  0  0
  4  6  2  0  0  0  0
  5  8  2  0  0  0  0
  6  8  1  0  0  0  0
  7  9  2  0  0  0  0
  9 10  1  0  0  0  0
M  END
> <PUBCHEM_COMPOUND_CID>
637511

> <PUBCHEM_COMPOUND_CANONICALIZED>
1

> <PUBCHEM_CACTVS_COMPLEXITY>
121

> <PUBCHEM_CACTVS_HBOND_ACCEPTOR>
1

> <PUBCHEM_CACTVS_HBOND_DONOR>
0

> <PUBCHEM_CACTVS_ROTATABLE_BOND>
2

> <PUBCHEM_CACTVS_SUBSKEYS>
AAADccBwIAAAAAAAAAAAAAAAAAAAAAAAAAAwAAAAAAAAAAABAAAAGgAAAAAADACgmAIwAIAAAACIAihSgAACAAAgAAAIiAAAAMgIICKAERCAIAAggAAIiYcAgAAOAAAAAAAAAAAAAAAAAAAAAAAAAAAAAA==

> <PUBCHEM_IUPAC_OPENEYE_NAME>
(~{E})-3-phenylprop-2-enal

> <PUBCHEM_IUPAC_CAS_NAME>
(~{E})-3-phenyl-2-propenal

> <PUBCHEM_IUPAC_NAME>
(~{E})-3-phenylprop-2-enal

> <PUBCHEM_IUPAC_SYSTEMATIC_NAME>
(~{E})-3-phenylprop-2-enal

> <PUBCHEM_IUPAC_TRADITIONAL_NAME>
(~{E})-3-phenylacrolein

> <PUBCHEM_IUPAC_INCHI>
InChI=1S/C9H8O/c10-8-4-7-9-5-2-1-3-6-9/h1-8H/b7-4+

> <PUBCHEM_IUPAC_INCHIKEY>
KJPRLNWUNMBNBZ-QPJJXVBHSA-N

> <PUBCHEM_XLOGP3>
1.9

> <PUBCHEM_EXACT_MASS>
132.058

> <PUBCHEM_MOLECULAR_FORMULA>
C9H8O

> <PUBCHEM_MOLECULAR_WEIGHT>
132.162

> <PUBCHEM_OPENEYE_CAN_SMILES>
C1=CC=C(C=C1)C=CC=O

> <PUBCHEM_OPENEYE_ISO_SMILES>
C1=CC=C(C=C1)/C=C/C=O

> <PUBCHEM_CACTVS_TPSA>
17.1

> <PUBCHEM_MONOISOTOPIC_WEIGHT>
132.058

> <PUBCHEM_TOTAL_CHARGE>
0

> <PUBCHEM_HEAVY_ATOM_COUNT>
10

> <PUBCHEM_ATOM_DEF_STEREO_COUNT>
0

> <PUBCHEM_ATOM_UDEF_STEREO_COUNT>
0

> <PUBCHEM_BOND_DEF_STEREO_COUNT>
1

> <PUBCHEM_BOND_UDEF_STEREO_COUNT>
0

> <PUBCHEM_ISOTOPIC_ATOM_COUNT>
0

> <PUBCHEM_COMPONENT_COUNT>
1

> <PUBCHEM_CACTVS_TAUTO_COUNT>
-1

> <PUBCHEM_COORDINATE_TYPE>
1
5
255

> <PUBCHEM_BONDANNOTATIONS>
2  3  8
2  4  8
3  5  8
4  6  8
5  8  8
6  8  8

$$$$
3249
  -OEChem-02061913062D

 29 31  0     1  0  0  0  0  0999 V2000
    5.4641   -4.8465    0.0000 O   0  0  0  0  0  0  0  0  0  0  0  0
    5.4641    1.1535    0.0000 C   0  0  3  0  0  0  0  0  0  0  0  0
    6.4103    1.4582    0.0000 C   0  0  3  0  0  0  0  0  0  0  0  0
    5.4641    0.1535    0.0000 C   0  0  3  0  0  0  0  0  0  0  0  0
    6.9939    0.6535    0.0000 C   0  0  0  0  0  0  0  0  0  0  0  0
    6.4103   -0.1512    0.0000 C   0  0  0  0  0  0  0  0  0  0  0  0
    4.5981    1.6535    0.0000 C   0  0  0  0  0  0  0  0  0  0  0  0
    6.7210    2.4087    0.0000 C   0  0  3  0  0  0  0  0  0  0  0  0
    4.5981   -0.3465    0.0000 C   0  0  0  0  0  0  0  0  0  0  0  0
    5.4641    2.1535    0.0000 C   0  0  0  0  0  0  0  0  0  0  0  0
    3.7320    1.1535    0.0000 C   0  0  0  0  0  0  0  0  0  0  0  0
    3.7320    0.1535    0.0000 C   0  0  0  0  0  0  0  0  0  0  0  0
    6.0531    3.1530    0.0000 C   0  0  0  0  0  0  0  0  0  0  0  0
    7.6995    2.6150    0.0000 C   0  0  0  0  0  0  0  0  0  0  0  0
    4.5981   -1.3465    0.0000 C   0  0  0  0  0  0  0  0  0  0  0  0
    8.0102    3.5655    0.0000 C   0  0  0  0  0  0  0  0  0  0  0  0
    3.7320   -1.8465    0.0000 C   0  0  0  0  0  0  0  0  0  0  0  0
    8.9887    3.7717    0.0000 C   0  0  3  0  0  0  0  0  0  0  0  0
    3.7320   -2.8465    0.0000 C   0  0  0  0  0  0  0  0  0  0  0  0
    9.2993    4.7222    0.0000 C   0  0  0  0  0  0  0  0  0  0  0  0
    4.5981   -3.3465    0.0000 C   0  0  0  0  0  0  0  0  0  0  0  0
    9.6565    3.0274    0.0000 C   0  0  0  0  0  0  0  0  0  0  0  0
    2.8660   -3.3465    0.0000 C   0  0  0  0  0  0  0  0  0  0  0  0
    4.5981   -4.3465    0.0000 C   0  0  3  0  0  0  0  0  0  0  0  0
    2.8660   -4.3465    0.0000 C   0  0  0  0  0  0  0  0  0  0  0  0
    3.7320   -4.8465    0.0000 C   0  0  0  0  0  0  0  0  0  0  0  0
   10.2778    4.9284    0.0000 C   0  0  0  0  0  0  0  0  0  0  0  0
    8.6315    5.4665    0.0000 C   0  0  0  0  0  0  0  0  0  0  0  0
    2.0000   -2.8465    0.0000 C   0  0  0  0  0  0  0  0  0  0  0  0
  1 24  1  0  0  0  0
  2  3  1  0  0  0  0
  2  4  1  0  0  0  0
  2  7  1  0  0  0  0
  2 10  1  0  0  0  0
  3  5  1  0  0  0  0
  3  8  1  0  0  0  0
  4  6  1  0  0  0  0
  4  9  1  0  0  0  0
  5  6  1  0  0  0  0
  7 11  1  0  0  0  0
  8 13  1  0  0  0  0
  8 14  1  0  0  0  0
  9 12  1  0  0  0  0
  9 15  2  3  0  0  0
 11 12  1  0  0  0  0
 14 16  2  3  0  0  0
 15 17  1  0  0  0  0
 16 18  1  0  0  0  0
 17 19  2  3  0  0  0
 18 20  1  0  0  0  0
 18 22  1  0  0  0  0
 19 21  1  0  0  0  0
 19 23  1  0  0  0  0
 20 27  1  0  0  0  0
 20 28  1  0  0  0  0
 21 24  1  0  0  0  0
 23 25  1  0  0  0  0
 23 29  2  0  0  0  0
 24 26  1  0  0  0  0
 25 26  1  0  0  0  0
M  END
> <PUBCHEM_COMPOUND_CID>
3249

> <PUBCHEM_COMPOUND_CANONICALIZED>
1

> <PUBCHEM_CACTVS_COMPLEXITY>
678

> <PUBCHEM_CACTVS_HBOND_ACCEPTOR>
1

> <PUBCHEM_CACTVS_HBOND_DONOR>
1

> <PUBCHEM_CACTVS_ROTATABLE_BOND>
5

> <PUBCHEM_CACTVS_SUBSKEYS>
AAADcfB4IAAAAAAAAAAAAAAAAAAAAYAAAAAwYAAAAAAAAGAAAAAAGgAACAAADxSggAICAAAAAgCAAiBCAAAAAAAgAAAICAAAAAgIEAIAAQAAQAAEwAAIgAOAwMAPgAAAAAAAAAAAAAAAACAAAQAACAAAAA==

> <PUBCHEM_IUPAC_OPENEYE_NAME>
3-[2-[7~{a}-methyl-1-(1,4,5-trimethylhex-2-enyl)-2,3,3~{a},5,6,7-hexahydro-1~{H}-inden-4-ylidene]ethylidene]-4-methylene-cyclohexanol

> <PUBCHEM_IUPAC_CAS_NAME>
3-[2-[1-(5,6-dimethylhept-3-en-2-yl)-7~{a}-methyl-2,3,3~{a},5,6,7-hexahydro-1~{H}-inden-4-ylidene]ethylidene]-4-methylene-1-cyclohexanol

> <PUBCHEM_IUPAC_NAME>
3-[2-[1-(5,6-dimethylhept-3-en-2-yl)-7~{a}-methyl-2,3,3~{a},5,6,7-hexahydro-1~{H}-inden-4-ylidene]ethylidene]-4-methylidenecyclohexan-1-ol

> <PUBCHEM_IUPAC_SYSTEMATIC_NAME>
3-[2-[1-(5,6-dimethylhept-3-en-2-yl)-7~{a}-methyl-2,3,3~{a},5,6,7-hexahydro-1~{H}-inden-4-ylidene]ethylidene]-4-methylidene-cyclohexan-1-ol

> <PUBCHEM_IUPAC_TRADITIONAL_NAME>
3-[2-[7~{a}-methyl-1-(1,4,5-trimethylhex-2-enyl)-2,3,3~{a},5,6,7-hexahydro-1~{H}-inden-4-ylidene]ethylidene]-4-methylene-cyclohexanol

> <PUBCHEM_IUPAC_INCHI>
InChI=1S/C28H44O/c1-19(2)20(3)9-10-22(5)26-15-16-27-23(8-7-17-28(26,27)6)12-13-24-18-25(29)14-11-21(24)4/h9-10,12-13,19-20,22,25-27,29H,4,7-8,11,14-18H2,1-3,5-6H3

> <PUBCHEM_IUPAC_INCHIKEY>
MECHNRXZTMCUDQ-UHFFFAOYSA-N

> <PUBCHEM_XLOGP3_AA>
7.4

> <PUBCHEM_EXACT_MASS>
396.339

> <PUBCHEM_MOLECULAR_FORMULA>
C28H44O

> <PUBCHEM_MOLECULAR_WEIGHT>
396.659

> <PUBCHEM_OPENEYE_CAN_SMILES>
CC(C)C(C)C=CC(C)C1CCC2C1(CCCC2=CC=C3CC(CCC3=C)O)C

> <PUBCHEM_OPENEYE_ISO_SMILES>
CC(C)C(C)C=CC(C)C1CCC2C1(CCCC2=CC=C3CC(CCC3=C)O)C

> <PUBCHEM_CACTVS_TPSA>
20.2

> <PUBCHEM_MONOISOTOPIC_WEIGHT>
396.339

> <PUBCHEM_TOTAL_CHARGE>
0

> <PUBCHEM_HEAVY_ATOM_COUNT>
29

> <PUBCHEM_ATOM_DEF_STEREO_COUNT>
0

> <PUBCHEM_ATOM_UDEF_STEREO_COUNT>
6

> <PUBCHEM_BOND_DEF_STEREO_COUNT>
0

> <PUBCHEM_BOND_UDEF_STEREO_COUNT>
3

> <PUBCHEM_ISOTOPIC_ATOM_COUNT>
0

> <PUBCHEM_COMPONENT_COUNT>
1

> <PUBCHEM_CACTVS_TAUTO_COUNT>
-1

> <PUBCHEM_COORDINATE_TYPE>
1
5
255

> <PUBCHEM_BONDANNOTATIONS>
24  1  3
14  16  1
17  19  1
18  22  3
2  10  3
3  5  3
4  9  3
8  13  3
9  15  1

$$$$
7837
  -OEChem-02061913072D

 10 10  0     1  0  0  0  0  0999 V2000
    5.0981   -2.1830    0.0000 O   0  0  0  0  0  0  0  0  0  0  0  0
    3.7320    0.1830    0.0000 O   0  0  0  0  0  0  0  0  0  0  0  0
    2.0000    0.1830    0.0000 O   0  0  0  0  0  0  0  0  0  0  0  0
    4.5981   -1.3170    0.0000 C   0  0  3  0  0  0  0  0  0  0  0  0
    5.5981   -1.3170    0.0000 C   0  0  0  0  0  0  0  0  0  0  0  0
    3.7320   -0.8170    0.0000 C   0  0  0  0  0  0  0  0  0  0  0  0
    2.8660    0.6830    0.0000 C   0  0  0  0  0  0  0  0  0  0  0  0
    2.8660    1.6830    0.0000 C   0  0  0  0  0  0  0  0  0  0  0  0
    2.0000    2.1830    0.0000 C   0  0  0  0  0  0  0  0  0  0  0  0
    3.7320    2.1830    0.0000 C   0  0  0  0  0  0  0  0  0  0  0  0
  1  4  1  0  0  0  0
  1  5  1  0  0  0  0
  2  6  1  0  0  0  0
  2  7  1  0  0  0  0
  3  7  2  0  0  0  0
  4  5  1  0  0  0  0
  4  6  1  0  0  0  0
  7  8  1  0  0  0  0
  8  9  1  0  0  0  0
  8 10  2  0  0  0  0
M  END
> <PUBCHEM_COMPOUND_CID>
7837

> <PUBCHEM_COMPOUND_CANONICALIZED>
1

> <PUBCHEM_CACTVS_COMPLEXITY>
162

> <PUBCHEM_CACTVS_HBOND_ACCEPTOR>
3

> <PUBCHEM_CACTVS_HBOND_DONOR>
0

> <PUBCHEM_CACTVS_ROTATABLE_BOND>
4

> <PUBCHEM_CACTVS_SUBSKEYS>
AAADccBgMAAAAAAAAAAAAAAAEgAAAAAAAAAAAAAAAAAAAAAAAAAAGgAAAAAADBSggAICCAAABACIAgDSCAAAAAAAAAAAAAEAAEABBAAAIQACAAABAAACIIAAAAAAAAAAAAAAAAAAAAAAAAAAAAAAAAAAAA==

> <PUBCHEM_IUPAC_OPENEYE_NAME>
oxiran-2-ylmethyl 2-methylprop-2-enoate

> <PUBCHEM_IUPAC_CAS_NAME>
2-methyl-2-propenoic acid 2-oxiranylmethyl ester

> <PUBCHEM_IUPAC_NAME>
oxiran-2-ylmethyl 2-methylprop-2-enoate

> <PUBCHEM_IUPAC_SYSTEMATIC_NAME>
oxiran-2-ylmethyl 2-methylprop-2-enoate

> <PUBCHEM_IUPAC_TRADITIONAL_NAME>
2-methylacrylic acid glycidyl ester

> <PUBCHEM_IUPAC_INCHI>
InChI=1S/C7H10O3/c1-5(2)7(8)10-4-6-3-9-6/h6H,1,3-4H2,2H3

> <PUBCHEM_IUPAC_INCHIKEY>
VOZRXNHHFUQHIL-UHFFFAOYSA-N

> <PUBCHEM_XLOGP3_AA>
0.8

> <PUBCHEM_EXACT_MASS>
142.063

> <PUBCHEM_MOLECULAR_FORMULA>
C7H10O3

> <PUBCHEM_MOLECULAR_WEIGHT>
142.154

> <PUBCHEM_OPENEYE_CAN_SMILES>
CC(=C)C(=O)OCC1CO1

> <PUBCHEM_OPENEYE_ISO_SMILES>
CC(=C)C(=O)OCC1CO1

> <PUBCHEM_CACTVS_TPSA>
38.8

> <PUBCHEM_MONOISOTOPIC_WEIGHT>
142.063

> <PUBCHEM_TOTAL_CHARGE>
0

> <PUBCHEM_HEAVY_ATOM_COUNT>
10

> <PUBCHEM_ATOM_DEF_STEREO_COUNT>
0

> <PUBCHEM_ATOM_UDEF_STEREO_COUNT>
1

> <PUBCHEM_BOND_DEF_STEREO_COUNT>
0

> <PUBCHEM_BOND_UDEF_STEREO_COUNT>
0

> <PUBCHEM_ISOTOPIC_ATOM_COUNT>
0

> <PUBCHEM_COMPONENT_COUNT>
1

> <PUBCHEM_CACTVS_TAUTO_COUNT>
-1

> <PUBCHEM_COORDINATE_TYPE>
1
5
255

> <PUBCHEM_BONDANNOTATIONS>
4  11  3

$$$$
7175
  -OEChem-02061913072D

 13 13  0     0  0  0  0  0  0999 V2000
    3.7320    1.1550    0.0000 O   0  0  0  0  0  0  0  0  0  0  0  0
    2.0000    1.1550    0.0000 O   0  0  0  0  0  0  0  0  0  0  0  0
    2.8660   -3.3450    0.0000 O   0  0  0  0  0  0  0  0  0  0  0  0
    4.5981    2.6550    0.0000 C   0  0  0  0  0  0  0  0  0  0  0  0
    3.7320    2.1550    0.0000 C   0  0  0  0  0  0  0  0  0  0  0  0
    2.8660   -0.3450    0.0000 C   0  0  0  0  0  0  0  0  0  0  0  0
    4.5981    3.6550    0.0000 C   0  0  0  0  0  0  0  0  0  0  0  0
    2.8660    0.6550    0.0000 C   0  0  0  0  0  0  0  0  0  0  0  0
    2.0000   -0.8450    0.0000 C   0  0  0  0  0  0  0  0  0  0  0  0
    3.7320   -0.8450    0.0000 C   0  0  0  0  0  0  0  0  0  0  0  0
    2.0000   -1.8450    0.0000 C   0  0  0  0  0  0  0  0  0  0  0  0
    3.7320   -1.8450    0.0000 C   0  0  0  0  0  0  0  0  0  0  0  0
    2.8660   -2.3450    0.0000 C   0  0  0  0  0  0  0  0  0  0  0  0
  1  5  1  0  0  0  0
  1  8  1  0  0  0  0
  2  8  2  0  0  0  0
  3 13  1  0  0  0  0
  4  5  1  0  0  0  0
  4  7  1  0  0  0  0
  6  8  1  0  0  0  0
  6  9  2  0  0  0  0
  6 10  1  0  0  0  0
  9 11  1  0  0  0  0
 10 12  2  0  0  0  0
 11 13  2  0  0  0  0
 12 13  1  0  0  0  0
M  END
> <PUBCHEM_COMPOUND_CID>
7175

> <PUBCHEM_COMPOUND_CANONICALIZED>
1

> <PUBCHEM_CACTVS_COMPLEXITY>
160

> <PUBCHEM_CACTVS_HBOND_ACCEPTOR>
3

> <PUBCHEM_CACTVS_HBOND_DONOR>
1

> <PUBCHEM_CACTVS_ROTATABLE_BOND>
4

> <PUBCHEM_CACTVS_SUBSKEYS>
AAADccBwMAAAAAAAAAAAAAAAAAAAAAAAAAAwAAAAAAAAAAABAAAAGgAACAAADASgmAIyDoAABgCIAiDSCAACAAAkIAAIiAEGCMgIJjKCNRqCcQAkwBEIuYeI7CzOIAAAAAAAAABAAAAAAAAAAAAAAAAAAA==

> <PUBCHEM_IUPAC_OPENEYE_NAME>
propyl 4-hydroxybenzoate

> <PUBCHEM_IUPAC_CAS_NAME>
4-hydroxybenzoic acid propyl ester

> <PUBCHEM_IUPAC_NAME>
propyl 4-hydroxybenzoate

> <PUBCHEM_IUPAC_SYSTEMATIC_NAME>
propyl 4-oxidanylbenzoate

> <PUBCHEM_IUPAC_TRADITIONAL_NAME>
propylparaben

> <PUBCHEM_IUPAC_INCHI>
InChI=1S/C10H12O3/c1-2-7-13-10(12)8-3-5-9(11)6-4-8/h3-6,11H,2,7H2,1H3

> <PUBCHEM_IUPAC_INCHIKEY>
QELSKZZBTMNZEB-UHFFFAOYSA-N

> <PUBCHEM_XLOGP3>
3

> <PUBCHEM_EXACT_MASS>
180.079

> <PUBCHEM_MOLECULAR_FORMULA>
C10H12O3

> <PUBCHEM_MOLECULAR_WEIGHT>
180.203

> <PUBCHEM_OPENEYE_CAN_SMILES>
CCCOC(=O)C1=CC=C(C=C1)O

> <PUBCHEM_OPENEYE_ISO_SMILES>
CCCOC(=O)C1=CC=C(C=C1)O

> <PUBCHEM_CACTVS_TPSA>
46.5

> <PUBCHEM_MONOISOTOPIC_WEIGHT>
180.079

> <PUBCHEM_TOTAL_CHARGE>
0

> <PUBCHEM_HEAVY_ATOM_COUNT>
13

> <PUBCHEM_ATOM_DEF_STEREO_COUNT>
0

> <PUBCHEM_ATOM_UDEF_STEREO_COUNT>
0

> <PUBCHEM_BOND_DEF_STEREO_COUNT>
0

> <PUBCHEM_BOND_UDEF_STEREO_COUNT>
0

> <PUBCHEM_ISOTOPIC_ATOM_COUNT>
0

> <PUBCHEM_COMPONENT_COUNT>
1

> <PUBCHEM_CACTVS_TAUTO_COUNT>
-1

> <PUBCHEM_COORDINATE_TYPE>
1
5
255

> <PUBCHEM_BONDANNOTATIONS>
10  12  8
11  13  8
12  13  8
6  10  8
6  9  8
9  11  8

$$$$
54676825
  -OEChem-02061914202D

 29 29  0     1  0  0  0  0  0999 V2000
    5.0868   -3.2929    0.0000 O   0  0  0  0  0  0  0  0  0  0  0  0
    5.0298   -6.3807    0.0000 O   0  0  0  0  0  0  0  0  0  0  0  0
    3.3548   -4.2929    0.0000 O   0  0  0  0  0  0  0  0  0  0  0  0
    6.8189   -3.2929    0.0000 O   0  0  0  0  0  0  0  0  0  0  0  0
    2.4608   -6.0716    0.0000 O   0  0  0  0  0  0  0  0  0  0  0  0
    3.1330   -8.1407    0.0000 O   0  0  0  0  0  0  0  0  0  0  0  0
    5.3086   -8.1407    0.0000 O   0  0  0  0  0  0  0  0  0  0  0  0
    8.5510    2.7071    0.0000 C   0  0  0  0  0  0  0  0  0  0  0  0
    9.4170    3.2071    0.0000 C   0  0  0  0  0  0  0  0  0  0  0  0
    8.5510    1.7071    0.0000 C   0  0  0  0  0  0  0  0  0  0  0  0
    9.4170    4.2071    0.0000 C   0  0  0  0  0  0  0  0  0  0  0  0
    7.6849    1.2071    0.0000 C   0  0  0  0  0  0  0  0  0  0  0  0
   10.2830    4.7071    0.0000 C   0  0  0  0  0  0  0  0  0  0  0  0
    7.6849    0.2071    0.0000 C   0  0  0  0  0  0  0  0  0  0  0  0
   10.2830    5.7071    0.0000 C   0  0  0  0  0  0  0  0  0  0  0  0
    6.8189   -0.2929    0.0000 C   0  0  0  0  0  0  0  0  0  0  0  0
   11.1490    6.2071    0.0000 C   0  0  0  0  0  0  0  0  0  0  0  0
    6.8189   -1.2929    0.0000 C   0  0  0  0  0  0  0  0  0  0  0  0
   11.1490    7.2071    0.0000 C   0  0  0  0  0  0  0  0  0  0  0  0
    5.9529   -1.7929    0.0000 C   0  0  0  0  0  0  0  0  0  0  0  0
   12.0151    7.7071    0.0000 C   0  0  0  0  0  0  0  0  0  0  0  0
    4.2208   -4.7929    0.0000 C   0  0  3  0  0  0  0  0  0  0  0  0
    4.2208   -5.7929    0.0000 C   0  0  3  0  0  0  0  0  0  0  0  0
    5.9529   -2.7929    0.0000 C   0  0  0  0  0  0  0  0  0  0  0  0
    5.0868   -4.2929    0.0000 C   0  0  0  0  0  0  0  0  0  0  0  0
   12.0151    8.7071    0.0000 C   0  0  0  0  0  0  0  0  0  0  0  0
    3.4118   -6.3807    0.0000 C   0  0  0  0  0  0  0  0  0  0  0  0
    3.7208   -7.3317    0.0000 C   0  0  0  0  0  0  0  0  0  0  0  0
    4.7208   -7.3317    0.0000 C   0  0  0  0  0  0  0  0  0  0  0  0
  1 24  1  0  0  0  0
  1 25  1  0  0  0  0
  2 23  1  0  0  0  0
  2 29  1  0  0  0  0
  3 22  1  0  0  0  0
  4 24  2  0  0  0  0
  5 27  1  0  0  0  0
  6 28  1  0  0  0  0
  7 29  2  0  0  0  0
  8  9  1  0  0  0  0
  8 10  1  0  0  0  0
  9 11  1  0  0  0  0
 10 12  1  0  0  0  0
 11 13  1  0  0  0  0
 12 14  1  0  0  0  0
 13 15  1  0  0  0  0
 14 16  1  0  0  0  0
 15 17  1  0  0  0  0
 16 18  1  0  0  0  0
 17 19  1  0  0  0  0
 18 20  1  0  0  0  0
 19 21  1  0  0  0  0
 20 24  1  0  0  0  0
 21 26  1  0  0  0  0
 22 23  1  0  0  0  0
 22 25  1  0  0  0  0
 23 27  1  0  0  0  0
 27 28  2  0  0  0  0
 28 29  1  0  0  0  0
M  END
> <PUBCHEM_COMPOUND_CID>
54676825

> <PUBCHEM_COMPOUND_CANONICALIZED>
1

> <PUBCHEM_CACTVS_COMPLEXITY>
515

> <PUBCHEM_CACTVS_HBOND_ACCEPTOR>
7

> <PUBCHEM_CACTVS_HBOND_DONOR>
3

> <PUBCHEM_CACTVS_ROTATABLE_BOND>
18

> <PUBCHEM_CACTVS_SUBSKEYS>
AAADcfB4OAAAAAAAAAAAAAAAAAAAAQAAAAAAAAAAAAAAAAAAAAAAGgAACAAACBSggAICCAAABgCIAADQCAIAAAAgIAAACAFAAEgBFBIAIAACUAAFwAALIQPIyKCAAAAAAAAAAAAAAAAAAAAAAAAAAAAAAA==

> <PUBCHEM_IUPAC_OPENEYE_NAME>
[2-(3,4-dihydroxy-5-oxo-2~{H}-furan-2-yl)-2-hydroxy-ethyl] hexadecanoate

> <PUBCHEM_IUPAC_CAS_NAME>
hexadecanoic acid [2-(3,4-dihydroxy-5-oxo-2~{H}-furan-2-yl)-2-hydroxyethyl] ester

> <PUBCHEM_IUPAC_NAME>
[2-(3,4-dihydroxy-5-oxo-2~{H}-furan-2-yl)-2-hydroxyethyl] hexadecanoate

> <PUBCHEM_IUPAC_SYSTEMATIC_NAME>
[2-[3,4-bis(oxidanyl)-5-oxidanylidene-2~{H}-furan-2-yl]-2-oxidanyl-ethyl] hexadecanoate

> <PUBCHEM_IUPAC_TRADITIONAL_NAME>
palmitic acid [2-(3,4-dihydroxy-5-keto-2~{H}-furan-2-yl)-2-hydroxy-ethyl] ester

> <PUBCHEM_IUPAC_INCHI>
InChI=1S/C22H38O7/c1-2-3-4-5-6-7-8-9-10-11-12-13-14-15-18(24)28-16-17(23)21-19(25)20(26)22(27)29-21/h17,21,23,25-26H,2-16H2,1H3

> <PUBCHEM_IUPAC_INCHIKEY>
QAQJMLQRFWZOBN-UHFFFAOYSA-N

> <PUBCHEM_XLOGP3>
6.3

> <PUBCHEM_EXACT_MASS>
414.262

> <PUBCHEM_MOLECULAR_FORMULA>
C22H38O7

> <PUBCHEM_MOLECULAR_WEIGHT>
414.539

> <PUBCHEM_OPENEYE_CAN_SMILES>
CCCCCCCCCCCCCCCC(=O)OCC(C1C(=C(C(=O)O1)O)O)O

> <PUBCHEM_OPENEYE_ISO_SMILES>
CCCCCCCCCCCCCCCC(=O)OCC(C1C(=C(C(=O)O1)O)O)O

> <PUBCHEM_CACTVS_TPSA>
113

> <PUBCHEM_MONOISOTOPIC_WEIGHT>
414.262

> <PUBCHEM_TOTAL_CHARGE>
0

> <PUBCHEM_HEAVY_ATOM_COUNT>
29

> <PUBCHEM_ATOM_DEF_STEREO_COUNT>
0

> <PUBCHEM_ATOM_UDEF_STEREO_COUNT>
2

> <PUBCHEM_BOND_DEF_STEREO_COUNT>
0

> <PUBCHEM_BOND_UDEF_STEREO_COUNT>
0

> <PUBCHEM_ISOTOPIC_ATOM_COUNT>
0

> <PUBCHEM_COMPONENT_COUNT>
1

> <PUBCHEM_CACTVS_TAUTO_COUNT>
-1

> <PUBCHEM_COORDINATE_TYPE>
1
5
255

> <PUBCHEM_BONDANNOTATIONS>
23  27  3
22  3  3

$$$$
6221
  -OEChem-02061913062D

 28 30  0     1  0  0  0  0  0999 V2000
    5.4641   -4.8465    0.0000 O   0  0  0  0  0  0  0  0  0  0  0  0
    5.4641    1.1535    0.0000 C   0  0  2  0  0  0  0  0  0  0  0  0
    6.4103    1.4582    0.0000 C   0  0  2  0  0  0  0  0  0  0  0  0
    5.4641    0.1535    0.0000 C   0  0  1  0  0  0  0  0  0  0  0  0
    6.9939    0.6535    0.0000 C   0  0  0  0  0  0  0  0  0  0  0  0
    6.4103   -0.1512    0.0000 C   0  0  0  0  0  0  0  0  0  0  0  0
    4.5981    1.6535    0.0000 C   0  0  0  0  0  0  0  0  0  0  0  0
    6.7210    2.4087    0.0000 C   0  0  1  0  0  0  0  0  0  0  0  0
    4.5981   -0.3465    0.0000 C   0  0  0  0  0  0  0  0  0  0  0  0
    5.4641    2.1535    0.0000 C   0  0  0  0  0  0  0  0  0  0  0  0
    3.7320    1.1535    0.0000 C   0  0  0  0  0  0  0  0  0  0  0  0
    3.7320    0.1535    0.0000 C   0  0  0  0  0  0  0  0  0  0  0  0
    7.6995    2.6150    0.0000 C   0  0  0  0  0  0  0  0  0  0  0  0
    6.0531    3.1530    0.0000 C   0  0  0  0  0  0  0  0  0  0  0  0
    4.5981   -1.3465    0.0000 C   0  0  0  0  0  0  0  0  0  0  0  0
    8.0102    3.5655    0.0000 C   0  0  0  0  0  0  0  0  0  0  0  0
    8.9887    3.7717    0.0000 C   0  0  0  0  0  0  0  0  0  0  0  0
    3.7320   -1.8465    0.0000 C   0  0  0  0  0  0  0  0  0  0  0  0
    9.2993    4.7222    0.0000 C   0  0  0  0  0  0  0  0  0  0  0  0
    3.7320   -2.8465    0.0000 C   0  0  0  0  0  0  0  0  0  0  0  0
    4.5981   -3.3465    0.0000 C   0  0  0  0  0  0  0  0  0  0  0  0
   10.2778    4.9284    0.0000 C   0  0  0  0  0  0  0  0  0  0  0  0
    8.6315    5.4665    0.0000 C   0  0  0  0  0  0  0  0  0  0  0  0
    2.8660   -3.3465    0.0000 C   0  0  0  0  0  0  0  0  0  0  0  0
    4.5981   -4.3465    0.0000 C   0  0  2  0  0  0  0  0  0  0  0  0
    2.8660   -4.3465    0.0000 C   0  0  0  0  0  0  0  0  0  0  0  0
    3.7320   -4.8465    0.0000 C   0  0  0  0  0  0  0  0  0  0  0  0
    2.0000   -2.8465    0.0000 C   0  0  0  0  0  0  0  0  0  0  0  0
 25  1  1  1  0  0  0
  2  3  1  0  0  0  0
  2  4  1  0  0  0  0
  2  7  1  0  0  0  0
  2 10  1  1  0  0  0
  3  5  1  0  0  0  0
  3  8  1  0  0  0  0
  4  6  1  0  0  0  0
  4  9  1  0  0  0  0
  5  6  1  0  0  0  0
  7 11  1  0  0  0  0
  8 13  1  0  0  0  0
  8 14  1  6  0  0  0
  9 12  1  0  0  0  0
  9 15  2  3  0  0  0
 11 12  1  0  0  0  0
 13 16  1  0  0  0  0
 15 18  1  0  0  0  0
 16 17  1  0  0  0  0
 17 19  1  0  0  0  0
 18 20  2  3  0  0  0
 19 22  1  0  0  0  0
 19 23  1  0  0  0  0
 20 21  1  0  0  0  0
 20 24  1  0  0  0  0
 21 25  1  0  0  0  0
 24 26  1  0  0  0  0
 24 28  2  0  0  0  0
 25 27  1  0  0  0  0
 26 27  1  0  0  0  0
M  END
> <PUBCHEM_COMPOUND_CID>
6221

> <PUBCHEM_COMPOUND_CANONICALIZED>
1

> <PUBCHEM_CACTVS_COMPLEXITY>
610

> <PUBCHEM_CACTVS_HBOND_ACCEPTOR>
1

> <PUBCHEM_CACTVS_HBOND_DONOR>
1

> <PUBCHEM_CACTVS_ROTATABLE_BOND>
6

> <PUBCHEM_CACTVS_SUBSKEYS>
AAADcfB4IAAAAAAAAAAAAAAAAAAAAYAAAAAwYAAAAAAAAGAAAAAAGgAACAAADxSggAICAAAAAgCAAiBCAAAAAAAgAAAACAAAAAgIEAIAAQAAQAAEwAAIgAOAwMAPgAAAAAAAAAAAAAAAACAAAQAACAAAAA==

> <PUBCHEM_IUPAC_OPENEYE_NAME>
(1~{S})-3-[2-[(1~{R},3~{a}~{S},7~{a}~{R})-1-[(1~{R})-1,5-dimethylhexyl]-7~{a}-methyl-2,3,3~{a},5,6,7-hexahydro-1~{H}-inden-4-ylidene]ethylidene]-4-methylene-cyclohexanol

> <PUBCHEM_IUPAC_CAS_NAME>
(1~{S})-3-[2-[(1~{R},3~{a}~{S},7~{a}~{R})-7~{a}-methyl-1-[(2~{R})-6-methylheptan-2-yl]-2,3,3~{a},5,6,7-hexahydro-1~{H}-inden-4-ylidene]ethylidene]-4-methylene-1-cyclohexanol

> <PUBCHEM_IUPAC_NAME>
(1~{S})-3-[2-[(1~{R},3~{a}~{S},7~{a}~{R})-7~{a}-methyl-1-[(2~{R})-6-methylheptan-2-yl]-2,3,3~{a},5,6,7-hexahydro-1~{H}-inden-4-ylidene]ethylidene]-4-methylidenecyclohexan-1-ol

> <PUBCHEM_IUPAC_SYSTEMATIC_NAME>
(1~{S})-3-[2-[(1~{R},3~{a}~{S},7~{a}~{R})-7~{a}-methyl-1-[(2~{R})-6-methylheptan-2-yl]-2,3,3~{a},5,6,7-hexahydro-1~{H}-inden-4-ylidene]ethylidene]-4-methylidene-cyclohexan-1-ol

> <PUBCHEM_IUPAC_TRADITIONAL_NAME>
(1~{S})-3-[2-[(1~{R},3~{a}~{S},7~{a}~{R})-1-[(1~{R})-1,5-dimethylhexyl]-7~{a}-methyl-2,3,3~{a},5,6,7-hexahydro-1~{H}-inden-4-ylidene]ethylidene]-4-methylene-cyclohexanol

> <PUBCHEM_IUPAC_INCHI>
InChI=1S/C27H44O/c1-19(2)8-6-9-21(4)25-15-16-26-22(10-7-17-27(25,26)5)12-13-23-18-24(28)14-11-20(23)3/h12-13,19,21,24-26,28H,3,6-11,14-18H2,1-2,4-5H3/t21-,24+,25-,26+,27-/m1/s1

> <PUBCHEM_IUPAC_INCHIKEY>
QYSXJUFSXHHAJI-RWDMXNMGSA-N

> <PUBCHEM_XLOGP3_AA>
7.9

> <PUBCHEM_EXACT_MASS>
384.339

> <PUBCHEM_MOLECULAR_FORMULA>
C27H44O

> <PUBCHEM_MOLECULAR_WEIGHT>
384.648

> <PUBCHEM_OPENEYE_CAN_SMILES>
CC(C)CCCC(C)C1CCC2C1(CCCC2=CC=C3CC(CCC3=C)O)C

> <PUBCHEM_OPENEYE_ISO_SMILES>
C[C@H](CCCC(C)C)[C@H]1CC[C@@H]2[C@@]1(CCCC2=CC=C3C[C@H](CCC3=C)O)C

> <PUBCHEM_CACTVS_TPSA>
20.2

> <PUBCHEM_MONOISOTOPIC_WEIGHT>
384.339

> <PUBCHEM_TOTAL_CHARGE>
0

> <PUBCHEM_HEAVY_ATOM_COUNT>
28

> <PUBCHEM_ATOM_DEF_STEREO_COUNT>
5

> <PUBCHEM_ATOM_UDEF_STEREO_COUNT>
0

> <PUBCHEM_BOND_DEF_STEREO_COUNT>
0

> <PUBCHEM_BOND_UDEF_STEREO_COUNT>
2

> <PUBCHEM_ISOTOPIC_ATOM_COUNT>
0

> <PUBCHEM_COMPONENT_COUNT>
1

> <PUBCHEM_CACTVS_TAUTO_COUNT>
-1

> <PUBCHEM_COORDINATE_TYPE>
1
5
255

> <PUBCHEM_BONDANNOTATIONS>
25  1  5
18  20  1
2  10  5
3  29  6
4  30  6
8  14  6
9  15  1

$$$$
6604605
  -OEChem-02061913382D

 24 27  0     1  0  0  0  0  0999 V2000
    5.5320    0.2350    0.0000 O   0  0  0  0  0  0  0  0  0  0  0  0
    2.8680   -1.2408    0.0000 O   0  0  0  0  0  0  0  0  0  0  0  0
    7.9557    1.4507    0.0000 N   0  0  3  0  0  0  0  0  0  0  0  0
    6.3981   -3.2650    0.0000 N   0  0  0  0  0  0  0  0  0  0  0  0
    8.8217    1.9507    0.0000 C   0  0  2  0  0  0  0  0  0  0  0  0
    7.2641    0.2350    0.0000 C   0  0  1  0  0  0  0  0  0  0  0  0
    8.2300   -0.0238    0.0000 C   0  0  0  0  0  0  0  0  0  0  0  0
   10.2110    1.3986    0.0000 C   0  0  1  0  0  0  0  0  0  0  0  0
    8.1923    3.2997    0.0000 C   0  0  0  0  0  0  0  0  0  0  0  0
    9.7884    0.4923    0.0000 C   0  0  0  0  0  0  0  0  0  0  0  0
    7.3263    2.7997    0.0000 C   0  0  0  0  0  0  0  0  0  0  0  0
    6.3981   -0.2650    0.0000 C   0  0  1  0  0  0  0  0  0  0  0  0
   11.1507    1.7407    0.0000 C   0  0  0  0  0  0  0  0  0  0  0  0
    6.3981   -1.2650    0.0000 C   0  0  0  0  0  0  0  0  0  0  0  0
   11.9167    1.0979    0.0000 C   0  0  0  0  0  0  0  0  0  0  0  0
    5.5320   -1.7650    0.0000 C   0  0  0  0  0  0  0  0  0  0  0  0
    7.2641   -1.7650    0.0000 C   0  0  0  0  0  0  0  0  0  0  0  0
    5.5320   -2.7650    0.0000 C   0  0  0  0  0  0  0  0  0  0  0  0
    4.6381   -1.2303    0.0000 C   0  0  0  0  0  0  0  0  0  0  0  0
    7.2641   -2.7650    0.0000 C   0  0  0  0  0  0  0  0  0  0  0  0
    4.6381   -3.2997    0.0000 C   0  0  0  0  0  0  0  0  0  0  0  0
    3.7320   -1.7442    0.0000 C   0  0  0  0  0  0  0  0  0  0  0  0
    3.7320   -2.7858    0.0000 C   0  0  0  0  0  0  0  0  0  0  0  0
    2.0000   -1.7375    0.0000 C   0  0  0  0  0  0  0  0  0  0  0  0
 12  1  1  1  0  0  0
  2 22  1  0  0  0  0
  2 24  1  0  0  0  0
  3  6  1  0  0  0  0
  3 10  1  0  0  0  0
  3 11  1  0  0  0  0
  4 18  2  0  0  0  0
  4 20  1  0  0  0  0
  5  7  1  0  0  0  0
  5  8  1  0  0  0  0
  5  9  1  0  0  0  0
  6  7  1  0  0  0  0
  6 12  1  0  0  0  0
  8 10  1  0  0  0  0
  8 13  1  6  0  0  0
  9 11  1  0  0  0  0
 12 14  1  0  0  0  0
 13 15  2  0  0  0  0
 14 16  2  0  0  0  0
 14 17  1  0  0  0  0
 16 18  1  0  0  0  0
 16 19  1  0  0  0  0
 17 20  2  0  0  0  0
 18 21  1  0  0  0  0
 19 22  2  0  0  0  0
 21 23  2  0  0  0  0
 22 23  1  0  0  0  0
M  END
> <PUBCHEM_COMPOUND_CID>
6604605

> <PUBCHEM_COMPOUND_CANONICALIZED>
1

> <PUBCHEM_CACTVS_COMPLEXITY>
457

> <PUBCHEM_CACTVS_HBOND_ACCEPTOR>
4

> <PUBCHEM_CACTVS_HBOND_DONOR>
1

> <PUBCHEM_CACTVS_ROTATABLE_BOND>
4

> <PUBCHEM_CACTVS_SUBSKEYS>
AAADceB7MAAAAAAAAAAAAAAAAAAAAAAAAAA8WLFiAAAAAACx8AAAHgAACAAADTzhngY+xvMIFgCgAzRnRACCiCAxIiAI2CA+bJgONuLEsZuEcChkwBHY+Aew4PwOgEABAAACAAAAgAIAAAQAAAAAAAAAAA==

> <PUBCHEM_IUPAC_OPENEYE_NAME>
(~{R})-(6-methoxy-4-quinolyl)-[(2~{S},4~{R},5~{S})-5-vinylquinuclidin-2-yl]methanol

> <PUBCHEM_IUPAC_CAS_NAME>
(~{R})-[(2~{S},4~{R},5~{S})-5-ethenyl-1-azabicyclo[2.2.2]octan-2-yl]-(6-methoxy-4-quinolinyl)methanol

> <PUBCHEM_IUPAC_NAME>
(~{R})-[(2~{S},4~{R},5~{S})-5-ethenyl-1-azabicyclo[2.2.2]octan-2-yl]-(6-methoxyquinolin-4-yl)methanol

> <PUBCHEM_IUPAC_SYSTEMATIC_NAME>
(~{R})-[(2~{S},4~{R},5~{S})-5-ethenyl-1-azabicyclo[2.2.2]octan-2-yl]-(6-methoxyquinolin-4-yl)methanol

> <PUBCHEM_IUPAC_TRADITIONAL_NAME>
(~{R})-(6-methoxy-4-quinolyl)-[(2~{S},4~{R},5~{S})-5-vinylquinuclidin-2-yl]methanol

> <PUBCHEM_IUPAC_INCHI>
InChI=1S/C20H24N2O2/c1-3-13-12-22-9-7-14(13)10-19(22)20(23)16-6-8-21-18-5-4-15(24-2)11-17(16)18/h3-6,8,11,13-14,19-20,23H,1,7,9-10,12H2,2H3/t13-,14-,19+,20-/m1/s1

> <PUBCHEM_IUPAC_INCHIKEY>
LOUPRKONTZGTKE-VPCNSNALSA-N

> <PUBCHEM_XLOGP3>
2.9

> <PUBCHEM_EXACT_MASS>
324.184

> <PUBCHEM_MOLECULAR_FORMULA>
C20H24N2O2

> <PUBCHEM_MOLECULAR_WEIGHT>
324.424

> <PUBCHEM_OPENEYE_CAN_SMILES>
COC1=CC2=C(C=CN=C2C=C1)C(C3CC4CCN3CC4C=C)O

> <PUBCHEM_OPENEYE_ISO_SMILES>
COC1=CC2=C(C=CN=C2C=C1)[C@H]([C@@H]3C[C@H]4CCN3C[C@H]4C=C)O

> <PUBCHEM_CACTVS_TPSA>
45.6

> <PUBCHEM_MONOISOTOPIC_WEIGHT>
324.184

> <PUBCHEM_TOTAL_CHARGE>
0

> <PUBCHEM_HEAVY_ATOM_COUNT>
24

> <PUBCHEM_ATOM_DEF_STEREO_COUNT>
4

> <PUBCHEM_ATOM_UDEF_STEREO_COUNT>
0

> <PUBCHEM_BOND_DEF_STEREO_COUNT>
0

> <PUBCHEM_BOND_UDEF_STEREO_COUNT>
0

> <PUBCHEM_ISOTOPIC_ATOM_COUNT>
0

> <PUBCHEM_COMPONENT_COUNT>
1

> <PUBCHEM_CACTVS_TAUTO_COUNT>
-1

> <PUBCHEM_COORDINATE_TYPE>
1
5
255

> <PUBCHEM_BONDANNOTATIONS>
12  1  5
14  16  8
14  17  8
16  18  8
16  19  8
17  20  8
18  21  8
19  22  8
21  23  8
22  23  8
4  18  8
4  20  8
5  25  6
6  26  6
8  13  6

$$$$
931
  -OEChem-02061913062D

 10 11  0     0  0  0  0  0  0999 V2000
    3.7320   -0.5000    0.0000 C   0  0  0  0  0  0  0  0  0  0  0  0
    3.7320    0.5000    0.0000 C   0  0  0  0  0  0  0  0  0  0  0  0
    2.8660    1.0000    0.0000 C   0  0  0  0  0  0  0  0  0  0  0  0
    2.8660   -1.0000    0.0000 C   0  0  0  0  0  0  0  0  0  0  0  0
    4.6260   -1.0347    0.0000 C   0  0  0  0  0  0  0  0  0  0  0  0
    4.6260    1.0347    0.0000 C   0  0  0  0  0  0  0  0  0  0  0  0
    2.0000   -0.5000    0.0000 C   0  0  0  0  0  0  0  0  0  0  0  0
    2.0000    0.5000    0.0000 C   0  0  0  0  0  0  0  0  0  0  0  0
    5.5321   -0.5208    0.0000 C   0  0  0  0  0  0  0  0  0  0  0  0
    5.5321    0.5208    0.0000 C   0  0  0  0  0  0  0  0  0  0  0  0
  1  2  1  0  0  0  0
  1  4  2  0  0  0  0
  1  5  1  0  0  0  0
  2  3  2  0  0  0  0
  2  6  1  0  0  0  0
  3  8  1  0  0  0  0
  4  7  1  0  0  0  0
  5  9  2  0  0  0  0
  6 10  2  0  0  0  0
  7  8  2  0  0  0  0
  9 10  1  0  0  0  0
M  END
> <PUBCHEM_COMPOUND_CID>
931

> <PUBCHEM_COMPOUND_CANONICALIZED>
1

> <PUBCHEM_CACTVS_COMPLEXITY>
80.6

> <PUBCHEM_CACTVS_HBOND_ACCEPTOR>
0

> <PUBCHEM_CACTVS_HBOND_DONOR>
0

> <PUBCHEM_CACTVS_ROTATABLE_BOND>
0

> <PUBCHEM_CACTVS_SUBSKEYS>
AAADccBwAAAAAAAAAAAAAAAAAAAAAAAAAAAwYAAAAAAAAADBUAAAGAAAAAAADACAGAAwAMAAAACAAiBCAAACAAAgAAAIiAAAAIgIICKAERCAIAAggAAIiAcAgIAOgAAAAAAQAAAAAAAAACAAAAAAAAAAAA==

> <PUBCHEM_IUPAC_OPENEYE_NAME>
naphthalene

> <PUBCHEM_IUPAC_CAS_NAME>
naphthalene

> <PUBCHEM_IUPAC_NAME>
naphthalene

> <PUBCHEM_IUPAC_SYSTEMATIC_NAME>
naphthalene

> <PUBCHEM_IUPAC_TRADITIONAL_NAME>
naphthalene

> <PUBCHEM_IUPAC_INCHI>
InChI=1S/C10H8/c1-2-6-10-8-4-3-7-9(10)5-1/h1-8H

> <PUBCHEM_IUPAC_INCHIKEY>
UFWIBTONFRDIAS-UHFFFAOYSA-N

> <PUBCHEM_XLOGP3>
3.3

> <PUBCHEM_EXACT_MASS>
128.063

> <PUBCHEM_MOLECULAR_FORMULA>
C10H8

> <PUBCHEM_MOLECULAR_WEIGHT>
128.174

> <PUBCHEM_OPENEYE_CAN_SMILES>
C1=CC=C2C=CC=CC2=C1

> <PUBCHEM_OPENEYE_ISO_SMILES>
C1=CC=C2C=CC=CC2=C1

> <PUBCHEM_CACTVS_TPSA>
0

> <PUBCHEM_MONOISOTOPIC_WEIGHT>
128.063

> <PUBCHEM_TOTAL_CHARGE>
0

> <PUBCHEM_HEAVY_ATOM_COUNT>
10

> <PUBCHEM_ATOM_DEF_STEREO_COUNT>
0

> <PUBCHEM_ATOM_UDEF_STEREO_COUNT>
0

> <PUBCHEM_BOND_DEF_STEREO_COUNT>
0

> <PUBCHEM_BOND_UDEF_STEREO_COUNT>
0

> <PUBCHEM_ISOTOPIC_ATOM_COUNT>
0

> <PUBCHEM_COMPONENT_COUNT>
1

> <PUBCHEM_CACTVS_TAUTO_COUNT>
-1

> <PUBCHEM_COORDINATE_TYPE>
1
5
255

> <PUBCHEM_BONDANNOTATIONS>
1  2  8
1  4  8
1  5  8
2  3  8
2  6  8
3  8  8
4  7  8
5  9  8
6  10  8
7  8  8
9  10  8

$$$$
785
  -OEChem-02061913062D

  8  8  0     0  0  0  0  0  0999 V2000
    2.8660    2.0000    0.0000 O   0  0  0  0  0  0  0  0  0  0  0  0
    2.8660   -2.0000    0.0000 O   0  0  0  0  0  0  0  0  0  0  0  0
    2.8660    1.0000    0.0000 C   0  0  0  0  0  0  0  0  0  0  0  0
    2.8660   -1.0000    0.0000 C   0  0  0  0  0  0  0  0  0  0  0  0
    3.7320    0.5000    0.0000 C   0  0  0  0  0  0  0  0  0  0  0  0
    3.7320   -0.5000    0.0000 C   0  0  0  0  0  0  0  0  0  0  0  0
    2.0000    0.5000    0.0000 C   0  0  0  0  0  0  0  0  0  0  0  0
    2.0000   -0.5000    0.0000 C   0  0  0  0  0  0  0  0  0  0  0  0
  1  3  1  0  0  0  0
  2  4  1  0  0  0  0
  3  5  2  0  0  0  0
  3  7  1  0  0  0  0
  4  6  2  0  0  0  0
  4  8  1  0  0  0  0
  5  6  1  0  0  0  0
  7  8  2  0  0  0  0
M  END
> <PUBCHEM_COMPOUND_CID>
785

> <PUBCHEM_COMPOUND_CANONICALIZED>
1

> <PUBCHEM_CACTVS_COMPLEXITY>
54.9

> <PUBCHEM_CACTVS_HBOND_ACCEPTOR>
2

> <PUBCHEM_CACTVS_HBOND_DONOR>
2

> <PUBCHEM_CACTVS_ROTATABLE_BOND>
0

> <PUBCHEM_CACTVS_SUBSKEYS>
AAADcYBgMAAAAAAAAAAAAAAAAAAAAAAAAAAwAAAAAAAAAAABAAAAGgAACAAACASAkAAwBoAAAgCAACBCAAACAAAgIAAIiAAGCIgIJiKCERKAcAAkwBEImAfAQAAAAQAAAAAAAAACAAAAAAAAAAAAAAAAAA==

> <PUBCHEM_IUPAC_OPENEYE_NAME>
benzene-1,4-diol

> <PUBCHEM_IUPAC_CAS_NAME>
benzene-1,4-diol

> <PUBCHEM_IUPAC_NAME>
benzene-1,4-diol

> <PUBCHEM_IUPAC_SYSTEMATIC_NAME>
benzene-1,4-diol

> <PUBCHEM_IUPAC_TRADITIONAL_NAME>
hydroquinone

> <PUBCHEM_IUPAC_INCHI>
InChI=1S/C6H6O2/c7-5-1-2-6(8)4-3-5/h1-4,7-8H

> <PUBCHEM_IUPAC_INCHIKEY>
QIGBRXMKCJKVMJ-UHFFFAOYSA-N

> <PUBCHEM_XLOGP3>
0.6

> <PUBCHEM_EXACT_MASS>
110.037

> <PUBCHEM_MOLECULAR_FORMULA>
C6H6O2

> <PUBCHEM_MOLECULAR_WEIGHT>
110.112

> <PUBCHEM_OPENEYE_CAN_SMILES>
C1=CC(=CC=C1O)O

> <PUBCHEM_OPENEYE_ISO_SMILES>
C1=CC(=CC=C1O)O

> <PUBCHEM_CACTVS_TPSA>
40.5

> <PUBCHEM_MONOISOTOPIC_WEIGHT>
110.037

> <PUBCHEM_TOTAL_CHARGE>
0

> <PUBCHEM_HEAVY_ATOM_COUNT>
8

> <PUBCHEM_ATOM_DEF_STEREO_COUNT>
0

> <PUBCHEM_ATOM_UDEF_STEREO_COUNT>
0

> <PUBCHEM_BOND_DEF_STEREO_COUNT>
0

> <PUBCHEM_BOND_UDEF_STEREO_COUNT>
0

> <PUBCHEM_ISOTOPIC_ATOM_COUNT>
0

> <PUBCHEM_COMPONENT_COUNT>
1

> <PUBCHEM_CACTVS_TAUTO_COUNT>
-1

> <PUBCHEM_COORDINATE_TYPE>
1
5
255

> <PUBCHEM_BONDANNOTATIONS>
3  5  8
3  7  8
4  6  8
4  8  8
5  6  8
7  8  8

$$$$
71308193
  -OEChem-02061914422D

 29 31  0     1  0  0  0  0  0999 V2000
    2.0000   -4.8465    0.0000 O   0  0  0  0  0  0  0  0  0  0  0  0
    3.7320    1.1535    0.0000 C   0  0  2  0  0  0  0  0  0  0  0  0
    4.6783    1.4582    0.0000 C   0  0  2  0  0  0  0  0  0  0  0  0
    3.7320    0.1535    0.0000 C   0  0  1  0  0  0  0  0  0  0  0  0
    5.2619    0.6535    0.0000 C   0  0  0  0  0  0  0  0  0  0  0  0
    4.6783   -0.1512    0.0000 C   0  0  0  0  0  0  0  0  0  0  0  0
    2.8660    1.6535    0.0000 C   0  0  0  0  0  0  0  0  0  0  0  0
    4.9889    2.4087    0.0000 C   0  0  2  0  0  0  0  0  0  0  0  0
    2.8660   -0.3465    0.0000 C   0  0  0  0  0  0  0  0  0  0  0  0
    3.7320    2.1535    0.0000 C   0  0  0  0  0  0  0  0  0  0  0  0
    2.0000    1.1535    0.0000 C   0  0  0  0  0  0  0  0  0  0  0  0
    2.0000    0.1535    0.0000 C   0  0  0  0  0  0  0  0  0  0  0  0
    4.3211    3.1530    0.0000 C   0  0  0  0  0  0  0  0  0  0  0  0
    5.9674    2.6150    0.0000 C   0  0  0  0  0  0  0  0  0  0  0  0
    2.8660   -1.3465    0.0000 C   0  0  0  0  0  0  0  0  0  0  0  0
    6.2781    3.5655    0.0000 C   0  0  0  0  0  0  0  0  0  0  0  0
    3.7320   -1.8465    0.0000 C   0  0  0  0  0  0  0  0  0  0  0  0
    7.2566    3.7717    0.0000 C   0  0  1  0  0  0  0  0  0  0  0  0
    3.7320   -2.8465    0.0000 C   0  0  0  0  0  0  0  0  0  0  0  0
    7.5673    4.7222    0.0000 C   0  0  0  0  0  0  0  0  0  0  0  0
    2.8660   -3.3465    0.0000 C   0  0  0  0  0  0  0  0  0  0  0  0
    7.9244    3.0274    0.0000 C   0  0  0  0  0  0  0  0  0  0  0  0
    4.5981   -3.3465    0.0000 C   0  0  0  0  0  0  0  0  0  0  0  0
    2.8660   -4.3465    0.0000 C   0  0  2  0  0  0  0  0  0  0  0  0
    4.5981   -4.3465    0.0000 C   0  0  0  0  0  0  0  0  0  0  0  0
    3.7320   -4.8465    0.0000 C   0  0  0  0  0  0  0  0  0  0  0  0
    8.5458    4.9284    0.0000 C   0  0  0  0  0  0  0  0  0  0  0  0
    6.8994    5.4665    0.0000 C   0  0  0  0  0  0  0  0  0  0  0  0
    5.4641   -2.8465    0.0000 C   0  0  0  0  0  0  0  0  0  0  0  0
 24  1  1  6  0  0  0
  2  3  1  0  0  0  0
  2  4  1  0  0  0  0
  2  7  1  0  0  0  0
  2 10  1  1  0  0  0
  3  5  1  0  0  0  0
  3  8  1  0  0  0  0
  4  6  1  0  0  0  0
  4  9  1  0  0  0  0
  5  6  1  0  0  0  0
  7 11  1  0  0  0  0
  8 13  1  6  0  0  0
  8 14  1  0  0  0  0
  9 12  1  0  0  0  0
  9 15  2  0  0  0  0
 11 12  1  0  0  0  0
 14 16  2  3  0  0  0
 15 17  1  0  0  0  0
 16 18  1  0  0  0  0
 17 19  2  0  0  0  0
 18 20  1  0  0  0  0
 18 22  1  1  0  0  0
 19 21  1  0  0  0  0
 19 23  1  0  0  0  0
 20 27  1  0  0  0  0
 20 28  1  0  0  0  0
 21 24  1  0  0  0  0
 23 25  1  0  0  0  0
 23 29  2  0  0  0  0
 24 26  1  0  0  0  0
 25 26  1  0  0  0  0
M  END
> <PUBCHEM_COMPOUND_CID>
71308193

> <PUBCHEM_COMPOUND_CANONICALIZED>
1

> <PUBCHEM_CACTVS_COMPLEXITY>
678

> <PUBCHEM_CACTVS_HBOND_ACCEPTOR>
1

> <PUBCHEM_CACTVS_HBOND_DONOR>
1

> <PUBCHEM_CACTVS_ROTATABLE_BOND>
5

> <PUBCHEM_CACTVS_SUBSKEYS>
AAADcfB4IAAAAAAAAAAAAAAAAAAAAYAAAAAwYAAAAAAAAGAAAAAAGgAACAAADxSggAICAAAAAgCAAiBCAAAAAAAgAAAICAAAAAgIEAIAAQAAQAAEwAAIgAOAwMAPgAAAAAAAAAAAAAAAACAAAQAACAAAAA==

> <PUBCHEM_IUPAC_OPENEYE_NAME>
(1~{S},3~{E})-3-[(2~{Z})-2-[(1~{R},3~{a}~{S},7~{a}~{R})-7~{a}-methyl-1-[(1~{R},4~{R})-1,4,5-trimethylhex-2-enyl]-2,3,3~{a},5,6,7-hexahydro-1~{H}-inden-4-ylidene]ethylidene]-4-methylene-cyclohexanol

> <PUBCHEM_IUPAC_CAS_NAME>
(1~{S},3~{E})-3-[(2~{Z})-2-[(1~{R},3~{a}~{S},7~{a}~{R})-1-[(2~{R},5~{R})-5,6-dimethylhept-3-en-2-yl]-7~{a}-methyl-2,3,3~{a},5,6,7-hexahydro-1~{H}-inden-4-ylidene]ethylidene]-4-methylene-1-cyclohexanol

> <PUBCHEM_IUPAC_NAME>
(1~{S},3~{E})-3-[(2~{Z})-2-[(1~{R},3~{a}~{S},7~{a}~{R})-1-[(2~{R},5~{R})-5,6-dimethylhept-3-en-2-yl]-7~{a}-methyl-2,3,3~{a},5,6,7-hexahydro-1~{H}-inden-4-ylidene]ethylidene]-4-methylidenecyclohexan-1-ol

> <PUBCHEM_IUPAC_SYSTEMATIC_NAME>
(1~{S},3~{E})-3-[(2~{Z})-2-[(1~{R},3~{a}~{S},7~{a}~{R})-1-[(2~{R},5~{R})-5,6-dimethylhept-3-en-2-yl]-7~{a}-methyl-2,3,3~{a},5,6,7-hexahydro-1~{H}-inden-4-ylidene]ethylidene]-4-methylidene-cyclohexan-1-ol

> <PUBCHEM_IUPAC_TRADITIONAL_NAME>
(1~{S},3~{E})-3-[(2~{Z})-2-[(1~{R},3~{a}~{S},7~{a}~{R})-7~{a}-methyl-1-[(1~{R},4~{R})-1,4,5-trimethylhex-2-enyl]-2,3,3~{a},5,6,7-hexahydro-1~{H}-inden-4-ylidene]ethylidene]-4-methylene-cyclohexanol

> <PUBCHEM_IUPAC_INCHI>
InChI=1S/C28H44O/c1-19(2)20(3)9-10-22(5)26-15-16-27-23(8-7-17-28(26,27)6)12-13-24-18-25(29)14-11-21(24)4/h9-10,12-13,19-20,22,25-27,29H,4,7-8,11,14-18H2,1-3,5-6H3/b10-9?,23-12-,24-13+/t20-,22+,25-,26+,27-,28+/m0/s1

> <PUBCHEM_IUPAC_INCHIKEY>
MECHNRXZTMCUDQ-DJGSNFFDSA-N

> <PUBCHEM_XLOGP3_AA>
7.4

> <PUBCHEM_EXACT_MASS>
396.339

> <PUBCHEM_MOLECULAR_FORMULA>
C28H44O

> <PUBCHEM_MOLECULAR_WEIGHT>
396.659

> <PUBCHEM_OPENEYE_CAN_SMILES>
CC(C)C(C)C=CC(C)C1CCC2C1(CCCC2=CC=C3CC(CCC3=C)O)C

> <PUBCHEM_OPENEYE_ISO_SMILES>
C[C@H](C=C[C@H](C)C(C)C)[C@H]1CC[C@@H]\2[C@@]1(CCC/C2=C/C=C/3\C[C@H](CCC3=C)O)C

> <PUBCHEM_CACTVS_TPSA>
20.2

> <PUBCHEM_MONOISOTOPIC_WEIGHT>
396.339

> <PUBCHEM_TOTAL_CHARGE>
0

> <PUBCHEM_HEAVY_ATOM_COUNT>
29

> <PUBCHEM_ATOM_DEF_STEREO_COUNT>
6

> <PUBCHEM_ATOM_UDEF_STEREO_COUNT>
0

> <PUBCHEM_BOND_DEF_STEREO_COUNT>
2

> <PUBCHEM_BOND_UDEF_STEREO_COUNT>
1

> <PUBCHEM_ISOTOPIC_ATOM_COUNT>
0

> <PUBCHEM_COMPONENT_COUNT>
1

> <PUBCHEM_CACTVS_TAUTO_COUNT>
-1

> <PUBCHEM_COORDINATE_TYPE>
1
5
255

> <PUBCHEM_BONDANNOTATIONS>
24  1  6
14  16  1
18  22  5
2  10  5
3  30  6
4  31  6
8  13  6

$$$$
8640
  -OEChem-02061913072D

 11 12  0     0  0  0  0  0  0999 V2000
    2.8660   -1.3623    0.0000 N   0  0  0  0  0  0  0  0  0  0  0  0
    3.7320    0.1377    0.0000 C   0  0  0  0  0  0  0  0  0  0  0  0
    3.7320    1.1377    0.0000 C   0  0  0  0  0  0  0  0  0  0  0  0
    2.8660   -0.3623    0.0000 C   0  0  0  0  0  0  0  0  0  0  0  0
    4.6260   -0.3970    0.0000 C   0  0  0  0  0  0  0  0  0  0  0  0
    2.8660    1.6377    0.0000 C   0  0  0  0  0  0  0  0  0  0  0  0
    4.6260    1.6723    0.0000 C   0  0  0  0  0  0  0  0  0  0  0  0
    2.0000    0.1377    0.0000 C   0  0  0  0  0  0  0  0  0  0  0  0
    2.0000    1.1377    0.0000 C   0  0  0  0  0  0  0  0  0  0  0  0
    5.5321    0.1169    0.0000 C   0  0  0  0  0  0  0  0  0  0  0  0
    5.5321    1.1585    0.0000 C   0  0  0  0  0  0  0  0  0  0  0  0
  1  4  1  0  0  0  0
  2  3  1  0  0  0  0
  2  4  1  0  0  0  0
  2  5  2  0  0  0  0
  3  6  1  0  0  0  0
  3  7  2  0  0  0  0
  4  8  2  0  0  0  0
  5 10  1  0  0  0  0
  6  9  2  0  0  0  0
  7 11  1  0  0  0  0
  8  9  1  0  0  0  0
 10 11  2  0  0  0  0
M  END
> <PUBCHEM_COMPOUND_CID>
8640

> <PUBCHEM_COMPOUND_CANONICALIZED>
1

> <PUBCHEM_CACTVS_COMPLEXITY>
133

> <PUBCHEM_CACTVS_HBOND_ACCEPTOR>
1

> <PUBCHEM_CACTVS_HBOND_DONOR>
1

> <PUBCHEM_CACTVS_ROTATABLE_BOND>
0

> <PUBCHEM_CACTVS_SUBSKEYS>
AAADccByAAAAAAAAAAAAAAAAAAAAAAAAAAAwYAAAAAAAAADBUAAAHAAQAAAADAiBGAAwwMBAAACAAiRCQACCAAAgAgAIiAAAZIgIICKAkZGAIABgkAAIyAcQgIAOgAAAQAASAAAAAACAACQAAAAAAAAAAA==

> <PUBCHEM_IUPAC_OPENEYE_NAME>
naphthalen-1-amine

> <PUBCHEM_IUPAC_CAS_NAME>
1-naphthalenamine

> <PUBCHEM_IUPAC_NAME>
naphthalen-1-amine

> <PUBCHEM_IUPAC_SYSTEMATIC_NAME>
naphthalen-1-amine

> <PUBCHEM_IUPAC_TRADITIONAL_NAME>
1-naphthylamine

> <PUBCHEM_IUPAC_INCHI>
InChI=1S/C10H9N/c11-10-7-3-5-8-4-1-2-6-9(8)10/h1-7H,11H2

> <PUBCHEM_IUPAC_INCHIKEY>
RUFPHBVGCFYCNW-UHFFFAOYSA-N

> <PUBCHEM_XLOGP3>
2.2

> <PUBCHEM_EXACT_MASS>
143.073

> <PUBCHEM_MOLECULAR_FORMULA>
C10H9N

> <PUBCHEM_MOLECULAR_WEIGHT>
143.189

> <PUBCHEM_OPENEYE_CAN_SMILES>
C1=CC=C2C(=C1)C=CC=C2N

> <PUBCHEM_OPENEYE_ISO_SMILES>
C1=CC=C2C(=C1)C=CC=C2N

> <PUBCHEM_CACTVS_TPSA>
26

> <PUBCHEM_MONOISOTOPIC_WEIGHT>
143.073

> <PUBCHEM_TOTAL_CHARGE>
0

> <PUBCHEM_HEAVY_ATOM_COUNT>
11

> <PUBCHEM_ATOM_DEF_STEREO_COUNT>
0

> <PUBCHEM_ATOM_UDEF_STEREO_COUNT>
0

> <PUBCHEM_BOND_DEF_STEREO_COUNT>
0

> <PUBCHEM_BOND_UDEF_STEREO_COUNT>
0

> <PUBCHEM_ISOTOPIC_ATOM_COUNT>
0

> <PUBCHEM_COMPONENT_COUNT>
1

> <PUBCHEM_CACTVS_TAUTO_COUNT>
-1

> <PUBCHEM_COORDINATE_TYPE>
1
5
255

> <PUBCHEM_BONDANNOTATIONS>
10  11  8
2  3  8
2  4  8
2  5  8
3  6  8
3  7  8
4  8  8
5  10  8
6  9  8
7  11  8
8  9  8

$$$$
2286
  -OEChem-02061913062D

 25 28  0     1  0  0  0  0  0999 V2000
    4.7320    6.3660    0.0000 O   0  0  0  0  0  0  0  0  0  0  0  0
    2.0000   -6.3660    0.0000 O   0  0  0  0  0  0  0  0  0  0  0  0
    3.3660    4.0000    0.0000 O   0  0  0  0  0  0  0  0  0  0  0  0
    3.3660   -4.0000    0.0000 O   0  0  0  0  0  0  0  0  0  0  0  0
    3.3660    0.0000    0.0000 C   0  0  0  0  0  0  0  0  0  0  0  0
    4.2320    5.5000    0.0000 C   0  0  3  0  0  0  0  0  0  0  0  0
    2.5000   -5.5000    0.0000 C   0  0  3  0  0  0  0  0  0  0  0  0
    3.3660   -1.0000    0.0000 C   0  0  0  0  0  0  0  0  0  0  0  0
    3.3660    1.0000    0.0000 C   0  0  0  0  0  0  0  0  0  0  0  0
    3.0000   -6.3660    0.0000 C   0  0  0  0  0  0  0  0  0  0  0  0
    3.7320    6.3660    0.0000 C   0  0  0  0  0  0  0  0  0  0  0  0
    4.3660    0.0000    0.0000 C   0  0  0  0  0  0  0  0  0  0  0  0
    2.3660    0.0000    0.0000 C   0  0  0  0  0  0  0  0  0  0  0  0
    4.2320    4.5000    0.0000 C   0  0  0  0  0  0  0  0  0  0  0  0
    2.5000   -4.5000    0.0000 C   0  0  0  0  0  0  0  0  0  0  0  0
    2.5000    1.5000    0.0000 C   0  0  0  0  0  0  0  0  0  0  0  0
    2.5000   -1.5000    0.0000 C   0  0  0  0  0  0  0  0  0  0  0  0
    4.2320    1.5000    0.0000 C   0  0  0  0  0  0  0  0  0  0  0  0
    4.2320   -1.5000    0.0000 C   0  0  0  0  0  0  0  0  0  0  0  0
    3.3660   -3.0000    0.0000 C   0  0  0  0  0  0  0  0  0  0  0  0
    3.3660    3.0000    0.0000 C   0  0  0  0  0  0  0  0  0  0  0  0
    2.5000    2.5000    0.0000 C   0  0  0  0  0  0  0  0  0  0  0  0
    2.5000   -2.5000    0.0000 C   0  0  0  0  0  0  0  0  0  0  0  0
    4.2320    2.5000    0.0000 C   0  0  0  0  0  0  0  0  0  0  0  0
    4.2320   -2.5000    0.0000 C   0  0  0  0  0  0  0  0  0  0  0  0
  1  6  1  0  0  0  0
  1 11  1  0  0  0  0
  2  7  1  0  0  0  0
  2 10  1  0  0  0  0
  3 14  1  0  0  0  0
  3 21  1  0  0  0  0
  4 15  1  0  0  0  0
  4 20  1  0  0  0  0
  5  8  1  0  0  0  0
  5  9  1  0  0  0  0
  5 12  1  0  0  0  0
  5 13  1  0  0  0  0
  6 11  1  0  0  0  0
  6 14  1  0  0  0  0
  7 10  1  0  0  0  0
  7 15  1  0  0  0  0
  8 17  2  0  0  0  0
  8 19  1  0  0  0  0
  9 16  2  0  0  0  0
  9 18  1  0  0  0  0
 16 22  1  0  0  0  0
 17 23  1  0  0  0  0
 18 24  2  0  0  0  0
 19 25  2  0  0  0  0
 20 23  2  0  0  0  0
 20 25  1  0  0  0  0
 21 22  2  0  0  0  0
 21 24  1  0  0  0  0
M  END
> <PUBCHEM_COMPOUND_CID>
2286

> <PUBCHEM_COMPOUND_CANONICALIZED>
1

> <PUBCHEM_CACTVS_COMPLEXITY>
384

> <PUBCHEM_CACTVS_HBOND_ACCEPTOR>
4

> <PUBCHEM_CACTVS_HBOND_DONOR>
0

> <PUBCHEM_CACTVS_ROTATABLE_BOND>
8

> <PUBCHEM_CACTVS_SUBSKEYS>
AAADceB4OAAAAAAAAAAAAAAAEiQAAAAAAAAwYAAAAAAAAAABQAAAGgAAAAAADhSgmAIyBoAABACAAiBCAAACCAAgIAAIiAAGCIgNJiKEMRqCOCClwBEKqAeAwPAPoAAAAAAAAABAAAAAAAAAAAAAAAAAAA==

> <PUBCHEM_IUPAC_OPENEYE_NAME>
2-[[4-[1-methyl-1-[4-(oxiran-2-ylmethoxy)phenyl]ethyl]phenoxy]methyl]oxirane

> <PUBCHEM_IUPAC_CAS_NAME>
2-[[4-[2-[4-(2-oxiranylmethoxy)phenyl]propan-2-yl]phenoxy]methyl]oxirane

> <PUBCHEM_IUPAC_NAME>
2-[[4-[2-[4-(oxiran-2-ylmethoxy)phenyl]propan-2-yl]phenoxy]methyl]oxirane

> <PUBCHEM_IUPAC_SYSTEMATIC_NAME>
2-[[4-[2-[4-(oxiran-2-ylmethoxy)phenyl]propan-2-yl]phenoxy]methyl]oxirane

> <PUBCHEM_IUPAC_TRADITIONAL_NAME>
2-[[4-[1-(4-glycidoxyphenyl)-1-methyl-ethyl]phenoxy]methyl]oxirane

> <PUBCHEM_IUPAC_INCHI>
InChI=1S/C21H24O4/c1-21(2,15-3-7-17(8-4-15)22-11-19-13-24-19)16-5-9-18(10-6-16)23-12-20-14-25-20/h3-10,19-20H,11-14H2,1-2H3

> <PUBCHEM_IUPAC_INCHIKEY>
LCFVJGUPQDGYKZ-UHFFFAOYSA-N

> <PUBCHEM_XLOGP3_AA>
4

> <PUBCHEM_EXACT_MASS>
340.167

> <PUBCHEM_MOLECULAR_FORMULA>
C21H24O4

> <PUBCHEM_MOLECULAR_WEIGHT>
340.419

> <PUBCHEM_OPENEYE_CAN_SMILES>
CC(C)(C1=CC=C(C=C1)OCC2CO2)C3=CC=C(C=C3)OCC4CO4

> <PUBCHEM_OPENEYE_ISO_SMILES>
CC(C)(C1=CC=C(C=C1)OCC2CO2)C3=CC=C(C=C3)OCC4CO4

> <PUBCHEM_CACTVS_TPSA>
43.5

> <PUBCHEM_MONOISOTOPIC_WEIGHT>
340.167

> <PUBCHEM_TOTAL_CHARGE>
0

> <PUBCHEM_HEAVY_ATOM_COUNT>
25

> <PUBCHEM_ATOM_DEF_STEREO_COUNT>
0

> <PUBCHEM_ATOM_UDEF_STEREO_COUNT>
2

> <PUBCHEM_BOND_DEF_STEREO_COUNT>
0

> <PUBCHEM_BOND_UDEF_STEREO_COUNT>
0

> <PUBCHEM_ISOTOPIC_ATOM_COUNT>
0

> <PUBCHEM_COMPONENT_COUNT>
1

> <PUBCHEM_CACTVS_TAUTO_COUNT>
-1

> <PUBCHEM_COORDINATE_TYPE>
1
5
255

> <PUBCHEM_BONDANNOTATIONS>
16  22  8
17  23  8
18  24  8
19  25  8
20  23  8
20  25  8
21  22  8
21  24  8
6  14  3
7  15  3
8  17  8
8  19  8
9  16  8
9  18  8

$$$$
5953
  -OEChem-02061913062D

 24 27  0     1  0  0  0  0  0999 V2000
    5.5320    0.3376    0.0000 O   0  0  0  0  0  0  0  0  0  0  0  0
    2.8680   -1.1382    0.0000 O   0  0  0  0  0  0  0  0  0  0  0  0
    7.7389    2.3435    0.0000 N   0  0  3  0  0  0  0  0  0  0  0  0
    6.3981   -3.1624    0.0000 N   0  0  0  0  0  0  0  0  0  0  0  0
    8.2389    1.4774    0.0000 C   0  0  3  0  0  0  0  0  0  0  0  0
    7.2641    0.3376    0.0000 C   0  0  2  0  0  0  0  0  0  0  0  0
    8.2300    0.0788    0.0000 C   0  0  0  0  0  0  0  0  0  0  0  0
    6.1726    1.5638    0.0000 C   0  0  2  0  0  0  0  0  0  0  0  0
    9.4585    2.3310    0.0000 C   0  0  0  0  0  0  0  0  0  0  0  0
    6.2598    2.5600    0.0000 C   0  0  0  0  0  0  0  0  0  0  0  0
    8.9585    3.1970    0.0000 C   0  0  0  0  0  0  0  0  0  0  0  0
    6.3981   -0.1624    0.0000 C   0  0  2  0  0  0  0  0  0  0  0  0
    5.1878    1.3902    0.0000 C   0  0  0  0  0  0  0  0  0  0  0  0
    6.3981   -1.1624    0.0000 C   0  0  0  0  0  0  0  0  0  0  0  0
    4.5450    2.1563    0.0000 C   0  0  0  0  0  0  0  0  0  0  0  0
    5.5320   -1.6624    0.0000 C   0  0  0  0  0  0  0  0  0  0  0  0
    7.2641   -1.6624    0.0000 C   0  0  0  0  0  0  0  0  0  0  0  0
    5.5320   -2.6624    0.0000 C   0  0  0  0  0  0  0  0  0  0  0  0
    4.6381   -1.1277    0.0000 C   0  0  0  0  0  0  0  0  0  0  0  0
    7.2641   -2.6624    0.0000 C   0  0  0  0  0  0  0  0  0  0  0  0
    4.6381   -3.1970    0.0000 C   0  0  0  0  0  0  0  0  0  0  0  0
    3.7320   -1.6415    0.0000 C   0  0  0  0  0  0  0  0  0  0  0  0
    3.7320   -2.6832    0.0000 C   0  0  0  0  0  0  0  0  0  0  0  0
    2.0000   -1.6349    0.0000 C   0  0  0  0  0  0  0  0  0  0  0  0
 12  1  1  6  0  0  0
  2 22  1  0  0  0  0
  2 24  1  0  0  0  0
  3  6  1  0  0  0  0
  3 10  1  0  0  0  0
  3 11  1  0  0  0  0
  4 18  2  0  0  0  0
  4 20  1  0  0  0  0
  5  7  1  0  0  0  0
  5  8  1  0  0  0  0
  5  9  1  0  0  0  0
  6  7  1  0  0  0  0
  6 12  1  0  0  0  0
  8 10  1  0  0  0  0
  8 13  1  1  0  0  0
  9 11  1  0  0  0  0
 12 14  1  0  0  0  0
 13 15  2  0  0  0  0
 14 16  2  0  0  0  0
 14 17  1  0  0  0  0
 16 18  1  0  0  0  0
 16 19  1  0  0  0  0
 17 20  2  0  0  0  0
 18 21  1  0  0  0  0
 19 22  2  0  0  0  0
 21 23  2  0  0  0  0
 22 23  1  0  0  0  0
M  END
> <PUBCHEM_COMPOUND_CID>
5953

> <PUBCHEM_COMPOUND_CANONICALIZED>
1

> <PUBCHEM_CACTVS_COMPLEXITY>
457

> <PUBCHEM_CACTVS_HBOND_ACCEPTOR>
4

> <PUBCHEM_CACTVS_HBOND_DONOR>
1

> <PUBCHEM_CACTVS_ROTATABLE_BOND>
4

> <PUBCHEM_CACTVS_SUBSKEYS>
AAADceB7MAAAAAAAAAAAAAAAAAAAAAAAAAA8WLFiAAAAAACx8AAAHgAACAAADTzhngY+xvMIFgCgAzRnRACCiCAxIiAI2CA+bJgONuLEsZuEcChkwBHY+Aew4PwOgEABAAACAAAAgAIAAAQAAAAAAAAAAA==

> <PUBCHEM_IUPAC_OPENEYE_NAME>
(~{S})-(6-methoxy-4-quinolyl)-[(2~{R},5~{R})-5-vinylquinuclidin-2-yl]methanol

> <PUBCHEM_IUPAC_CAS_NAME>
(~{S})-[(2~{R},5~{R})-5-ethenyl-1-azabicyclo[2.2.2]octan-2-yl]-(6-methoxy-4-quinolinyl)methanol

> <PUBCHEM_IUPAC_NAME>
(~{S})-[(2~{R},5~{R})-5-ethenyl-1-azabicyclo[2.2.2]octan-2-yl]-(6-methoxyquinolin-4-yl)methanol

> <PUBCHEM_IUPAC_SYSTEMATIC_NAME>
(~{S})-[(2~{R},5~{R})-5-ethenyl-1-azabicyclo[2.2.2]octan-2-yl]-(6-methoxyquinolin-4-yl)methanol

> <PUBCHEM_IUPAC_TRADITIONAL_NAME>
(~{S})-(6-methoxy-4-quinolyl)-[(2~{R},5~{R})-5-vinylquinuclidin-2-yl]methanol

> <PUBCHEM_IUPAC_INCHI>
InChI=1S/C20H24N2O2/c1-3-13-12-22-9-7-14(13)10-19(22)20(23)16-6-8-21-18-5-4-15(24-2)11-17(16)18/h3-6,8,11,13-14,19-20,23H,1,7,9-10,12H2,2H3/t13-,14?,19+,20-/m0/s1

> <PUBCHEM_IUPAC_INCHIKEY>
LOUPRKONTZGTKE-NBGVHYBESA-N

> <PUBCHEM_XLOGP3>
2.9

> <PUBCHEM_EXACT_MASS>
324.184

> <PUBCHEM_MOLECULAR_FORMULA>
C20H24N2O2

> <PUBCHEM_MOLECULAR_WEIGHT>
324.424

> <PUBCHEM_OPENEYE_CAN_SMILES>
COC1=CC2=C(C=CN=C2C=C1)C(C3CC4CCN3CC4C=C)O

> <PUBCHEM_OPENEYE_ISO_SMILES>
COC1=CC2=C(C=CN=C2C=C1)[C@@H]([C@H]3CC4CCN3C[C@@H]4C=C)O

> <PUBCHEM_CACTVS_TPSA>
45.6

> <PUBCHEM_MONOISOTOPIC_WEIGHT>
324.184

> <PUBCHEM_TOTAL_CHARGE>
0

> <PUBCHEM_HEAVY_ATOM_COUNT>
24

> <PUBCHEM_ATOM_DEF_STEREO_COUNT>
3

> <PUBCHEM_ATOM_UDEF_STEREO_COUNT>
1

> <PUBCHEM_BOND_DEF_STEREO_COUNT>
0

> <PUBCHEM_BOND_UDEF_STEREO_COUNT>
0

> <PUBCHEM_ISOTOPIC_ATOM_COUNT>
0

> <PUBCHEM_COMPONENT_COUNT>
1

> <PUBCHEM_CACTVS_TAUTO_COUNT>
-1

> <PUBCHEM_COORDINATE_TYPE>
1
5
255

> <PUBCHEM_BONDANNOTATIONS>
12  1  6
14  16  8
14  17  8
16  18  8
16  19  8
17  20  8
18  21  8
19  22  8
21  23  8
22  23  8
4  18  8
4  20  8
5  25  3
6  26  5
8  13  5

$$$$
