8028
  -OEChem-02061913072D

  5  5  0     0  0  0  0  0  0999 V2000
    2.8090   -0.7694    0.0000 O   0  0  0  0  0  0  0  0  0  0  0  0
    2.3090    0.7694    0.0000 C   0  0  0  0  0  0  0  0  0  0  0  0
    3.3090    0.7694    0.0000 C   0  0  0  0  0  0  0  0  0  0  0  0
    3.6180   -0.1816    0.0000 C   0  0  0  0  0  0  0  0  0  0  0  0
    2.0000   -0.1816    0.0000 C   0  0  0  0  0  0  0  0  0  0  0  0
  1  4  1  0  0  0  0
  1  5  1  0  0  0  0
  2  3  1  0  0  0  0
  2  5  1  0  0  0  0
  3  4  1  0  0  0  0
M  END
> <PUBCHEM_COMPOUND_CID>
8028

> <PUBCHEM_COMPOUND_CANONICALIZED>
1

> <PUBCHEM_MOLECULAR_WEIGHT>
72.107

> <PUBCHEM_MONOISOTOPIC_WEIGHT>
72.058

> <PUBCHEM_EXACT_MASS>
72.058

> <PUBCHEM_MOLECULAR_FORMULA>
C4H8O

> <PUBCHEM_IUPAC_INCHI>
InChI=1S/C4H8O/c1-2-4-5-3-1/h1-4H2

> <PUBCHEM_IUPAC_INCHIKEY>
WYURNTSHIVDZCO-UHFFFAOYSA-N

> <PUBCHEM_XLOGP3>
0.5

> <PUBCHEM_OPENEYE_CAN_SMILES>
C1CCOC1

> <PUBCHEM_OPENEYE_ISO_SMILES>
C1CCOC1

> <PUBCHEM_IUPAC_NAME>
oxolane

> <PUBCHEM_IUPAC_OPENEYE_NAME>
tetrahydrofuran

> <PUBCHEM_IUPAC_CAS_NAME>
oxolane

> <PUBCHEM_IUPAC_TRADITIONAL_NAME>
tetrahydrofuran

> <PUBCHEM_IUPAC_SYSTEMATIC_NAME>
oxolane

> <PUBCHEM_CACTVS_HBOND_DONOR>
0

> <PUBCHEM_CACTVS_HBOND_ACCEPTOR>
1

> <PUBCHEM_CACTVS_ROTATABLE_BOND>
0

> <PUBCHEM_CACTVS_COMPLEXITY>
22.8

> <PUBCHEM_CACTVS_TPSA>
9.2

> <PUBCHEM_CACTVS_SUBSKEYS>
AAADccBgIAAAAAAAAAAAAAAAAAAAASAAAAAAAAAAAAAAAAAAAAAAGgAAAAAACACggAIAAAAABAAAAAAAAAAAAAAAAAAAAAAAAAAAAAAAAAACAAAEAAAAAAAAAAAAAAAAAAAAAAAAAAAAAAAAAAAAAAAAAA==

> <PUBCHEM_TOTAL_CHARGE>
0

> <PUBCHEM_HEAVY_ATOM_COUNT>
5

> <PUBCHEM_ATOM_DEF_STEREO_COUNT>
0

> <PUBCHEM_ATOM_UDEF_STEREO_COUNT>
0

> <PUBCHEM_BOND_DEF_STEREO_COUNT>
0

> <PUBCHEM_BOND_UDEF_STEREO_COUNT>
0

> <PUBCHEM_ISOTOPIC_ATOM_COUNT>
0

> <PUBCHEM_COMPONENT_COUNT>
1

> <PUBCHEM_CACTVS_TAUTO_COUNT>
-1

> <PUBCHEM_COORDINATE_TYPE>
1
5
255

$$$$
7501
  -OEChem-02061913072D

  8  8  0     0  0  0  0  0  0999 V2000
    2.8660    0.2500    0.0000 C   0  0  0  0  0  0  0  0  0  0  0  0
    2.0000   -0.2500    0.0000 C   0  0  0  0  0  0  0  0  0  0  0  0
    3.7320   -0.2500    0.0000 C   0  0  0  0  0  0  0  0  0  0  0  0
    2.0000   -1.2500    0.0000 C   0  0  0  0  0  0  0  0  0  0  0  0
    3.7320   -1.2500    0.0000 C   0  0  0  0  0  0  0  0  0  0  0  0
    2.8660   -1.7500    0.0000 C   0  0  0  0  0  0  0  0  0  0  0  0
    2.8660    1.2500    0.0000 C   0  0  0  0  0  0  0  0  0  0  0  0
    3.7320    1.7500    0.0000 C   0  0  0  0  0  0  0  0  0  0  0  0
  1  2  2  0  0  0  0
  1  3  1  0  0  0  0
  1  7  1  0  0  0  0
  2  4  1  0  0  0  0
  3  5  2  0  0  0  0
  4  6  2  0  0  0  0
  5  6  1  0  0  0  0
  7  8  2  0  0  0  0
M  END
> <PUBCHEM_COMPOUND_CID>
7501

> <PUBCHEM_COMPOUND_CANONICALIZED>
1

> <PUBCHEM_CACTVS_COMPLEXITY>
68.1

> <PUBCHEM_CACTVS_HBOND_ACCEPTOR>
0

> <PUBCHEM_CACTVS_HBOND_DONOR>
0

> <PUBCHEM_CACTVS_ROTATABLE_BOND>
1

> <PUBCHEM_CACTVS_SUBSKEYS>
AAADccBwAAAAAAAAAAAAAAAAAAAAAAAAAAAwAAAAAAAAAAABAAAAGAAAAAAADACAGAAwAIAAAACAAiBCAAACAAAgAAAIiAAAAIgIICKAERCAIAAggAAIiAcAgAAOAAAAAAAAAAAAAAAAAAAAAAAAAAAAAA==

> <PUBCHEM_IUPAC_OPENEYE_NAME>
styrene

> <PUBCHEM_IUPAC_CAS_NAME>
styrene

> <PUBCHEM_IUPAC_NAME>
styrene

> <PUBCHEM_IUPAC_SYSTEMATIC_NAME>
ethenylbenzene

> <PUBCHEM_IUPAC_TRADITIONAL_NAME>
styrene

> <PUBCHEM_IUPAC_INCHI>
InChI=1S/C8H8/c1-2-8-6-4-3-5-7-8/h2-7H,1H2

> <PUBCHEM_IUPAC_INCHIKEY>
PPBRXRYQALVLMV-UHFFFAOYSA-N

> <PUBCHEM_XLOGP3>
2.9

> <PUBCHEM_EXACT_MASS>
104.063

> <PUBCHEM_MOLECULAR_FORMULA>
C8H8

> <PUBCHEM_MOLECULAR_WEIGHT>
104.152

> <PUBCHEM_OPENEYE_CAN_SMILES>
C=CC1=CC=CC=C1

> <PUBCHEM_OPENEYE_ISO_SMILES>
C=CC1=CC=CC=C1

> <PUBCHEM_CACTVS_TPSA>
0

> <PUBCHEM_MONOISOTOPIC_WEIGHT>
104.063

> <PUBCHEM_TOTAL_CHARGE>
0

> <PUBCHEM_HEAVY_ATOM_COUNT>
8

> <PUBCHEM_ATOM_DEF_STEREO_COUNT>
0

> <PUBCHEM_ATOM_UDEF_STEREO_COUNT>
0

> <PUBCHEM_BOND_DEF_STEREO_COUNT>
0

> <PUBCHEM_BOND_UDEF_STEREO_COUNT>
0

> <PUBCHEM_ISOTOPIC_ATOM_COUNT>
0

> <PUBCHEM_COMPONENT_COUNT>
1

> <PUBCHEM_CACTVS_TAUTO_COUNT>
-1

> <PUBCHEM_COORDINATE_TYPE>
1
5
255

> <PUBCHEM_BONDANNOTATIONS>
1  2  8
1  3  8
2  4  8
3  5  8
4  6  8
5  6  8

$$$$
7929
  -OEChem-02061913072D

  8  8  0     0  0  0  0  0  0999 V2000
    3.7320    0.5000    0.0000 C   0  0  0  0  0  0  0  0  0  0  0  0
    2.8660   -1.0000    0.0000 C   0  0  0  0  0  0  0  0  0  0  0  0
    2.8660    0.0000    0.0000 C   0  0  0  0  0  0  0  0  0  0  0  0
    4.5981   -0.0000    0.0000 C   0  0  0  0  0  0  0  0  0  0  0  0
    3.7320   -1.5000    0.0000 C   0  0  0  0  0  0  0  0  0  0  0  0
    4.5981   -1.0000    0.0000 C   0  0  0  0  0  0  0  0  0  0  0  0
    3.7320    1.5000    0.0000 C   0  0  0  0  0  0  0  0  0  0  0  0
    2.0000   -1.5000    0.0000 C   0  0  0  0  0  0  0  0  0  0  0  0
  1  3  2  0  0  0  0
  1  4  1  0  0  0  0
  1  7  1  0  0  0  0
  2  3  1  0  0  0  0
  2  5  2  0  0  0  0
  2  8  1  0  0  0  0
  4  6  2  0  0  0  0
  5  6  1  0  0  0  0
M  END
> <PUBCHEM_COMPOUND_CID>
7929

> <PUBCHEM_COMPOUND_CANONICALIZED>
1

> <PUBCHEM_CACTVS_COMPLEXITY>
58.4

> <PUBCHEM_CACTVS_HBOND_ACCEPTOR>
0

> <PUBCHEM_CACTVS_HBOND_DONOR>
0

> <PUBCHEM_CACTVS_ROTATABLE_BOND>
0

> <PUBCHEM_CACTVS_SUBSKEYS>
AAADccBwAAAAAAAAAAAAAAAAAAAAAAAAAAAwAAAAAAAAAAABAAAAGAAAAAAADACAGAAyAIAAAACAAiBCAAACAAAgAAAIiAAAAIgIICKAERCAIAAggAAIiAcAgEAOAAACAAAAAAAAAAQAAAAAAAAAAAAAAA==

> <PUBCHEM_IUPAC_OPENEYE_NAME>
m-xylene

> <PUBCHEM_IUPAC_CAS_NAME>
1,3-xylene

> <PUBCHEM_IUPAC_NAME>
1,3-xylene

> <PUBCHEM_IUPAC_SYSTEMATIC_NAME>
1,3-dimethylbenzene

> <PUBCHEM_IUPAC_TRADITIONAL_NAME>
m-xylene

> <PUBCHEM_IUPAC_INCHI>
InChI=1S/C8H10/c1-7-4-3-5-8(2)6-7/h3-6H,1-2H3

> <PUBCHEM_IUPAC_INCHIKEY>
IVSZLXZYQVIEFR-UHFFFAOYSA-N

> <PUBCHEM_XLOGP3>
3.2

> <PUBCHEM_EXACT_MASS>
106.078

> <PUBCHEM_MOLECULAR_FORMULA>
C8H10

> <PUBCHEM_MOLECULAR_WEIGHT>
106.168

> <PUBCHEM_OPENEYE_CAN_SMILES>
CC1=CC(=CC=C1)C

> <PUBCHEM_OPENEYE_ISO_SMILES>
CC1=CC(=CC=C1)C

> <PUBCHEM_CACTVS_TPSA>
0

> <PUBCHEM_MONOISOTOPIC_WEIGHT>
106.078

> <PUBCHEM_TOTAL_CHARGE>
0

> <PUBCHEM_HEAVY_ATOM_COUNT>
8

> <PUBCHEM_ATOM_DEF_STEREO_COUNT>
0

> <PUBCHEM_ATOM_UDEF_STEREO_COUNT>
0

> <PUBCHEM_BOND_DEF_STEREO_COUNT>
0

> <PUBCHEM_BOND_UDEF_STEREO_COUNT>
0

> <PUBCHEM_ISOTOPIC_ATOM_COUNT>
0

> <PUBCHEM_COMPONENT_COUNT>
1

> <PUBCHEM_CACTVS_TAUTO_COUNT>
-1

> <PUBCHEM_COORDINATE_TYPE>
1
5
255

> <PUBCHEM_BONDANNOTATIONS>
1  3  8
1  4  8
2  3  8
2  5  8
4  6  8
5  6  8

$$$$
7809
  -OEChem-02061913072D

  8  8  0     0  0  0  0  0  0999 V2000
    2.8660    1.0000    0.0000 C   0  0  0  0  0  0  0  0  0  0  0  0
    2.8660   -1.0000    0.0000 C   0  0  0  0  0  0  0  0  0  0  0  0
    3.7320    0.5000    0.0000 C   0  0  0  0  0  0  0  0  0  0  0  0
    3.7320   -0.5000    0.0000 C   0  0  0  0  0  0  0  0  0  0  0  0
    2.0000    0.5000    0.0000 C   0  0  0  0  0  0  0  0  0  0  0  0
    2.0000   -0.5000    0.0000 C   0  0  0  0  0  0  0  0  0  0  0  0
    2.8660   -2.0000    0.0000 C   0  0  0  0  0  0  0  0  0  0  0  0
    2.8660    2.0000    0.0000 C   0  0  0  0  0  0  0  0  0  0  0  0
  1  3  2  0  0  0  0
  1  5  1  0  0  0  0
  1  8  1  0  0  0  0
  2  4  2  0  0  0  0
  2  6  1  0  0  0  0
  2  7  1  0  0  0  0
  3  4  1  0  0  0  0
  5  6  2  0  0  0  0
M  END
> <PUBCHEM_COMPOUND_CID>
7809

> <PUBCHEM_COMPOUND_CANONICALIZED>
1

> <PUBCHEM_CACTVS_COMPLEXITY>
48.4

> <PUBCHEM_CACTVS_HBOND_ACCEPTOR>
0

> <PUBCHEM_CACTVS_HBOND_DONOR>
0

> <PUBCHEM_CACTVS_ROTATABLE_BOND>
0

> <PUBCHEM_CACTVS_SUBSKEYS>
AAADccBwAAAAAAAAAAAAAAAAAAAAAAAAAAAwAAAAAAAAAAABAAAAGAAAAAAADACAGAAyAIAAAACAAiBCAAACAAAgAAAIiAAAAIgIICKAERCAIAAggAAIiAcAgAAOQAAAAAAAAACAAAAAAAAAAAAAAAAAAA==

> <PUBCHEM_IUPAC_OPENEYE_NAME>
p-xylene

> <PUBCHEM_IUPAC_CAS_NAME>
1,4-xylene

> <PUBCHEM_IUPAC_NAME>
1,4-xylene

> <PUBCHEM_IUPAC_SYSTEMATIC_NAME>
1,4-dimethylbenzene

> <PUBCHEM_IUPAC_TRADITIONAL_NAME>
p-xylene

> <PUBCHEM_IUPAC_INCHI>
InChI=1S/C8H10/c1-7-3-5-8(2)6-4-7/h3-6H,1-2H3

> <PUBCHEM_IUPAC_INCHIKEY>
URLKBWYHVLBVBO-UHFFFAOYSA-N

> <PUBCHEM_XLOGP3>
3.2

> <PUBCHEM_EXACT_MASS>
106.078

> <PUBCHEM_MOLECULAR_FORMULA>
C8H10

> <PUBCHEM_MOLECULAR_WEIGHT>
106.168

> <PUBCHEM_OPENEYE_CAN_SMILES>
CC1=CC=C(C=C1)C

> <PUBCHEM_OPENEYE_ISO_SMILES>
CC1=CC=C(C=C1)C

> <PUBCHEM_CACTVS_TPSA>
0

> <PUBCHEM_MONOISOTOPIC_WEIGHT>
106.078

> <PUBCHEM_TOTAL_CHARGE>
0

> <PUBCHEM_HEAVY_ATOM_COUNT>
8

> <PUBCHEM_ATOM_DEF_STEREO_COUNT>
0

> <PUBCHEM_ATOM_UDEF_STEREO_COUNT>
0

> <PUBCHEM_BOND_DEF_STEREO_COUNT>
0

> <PUBCHEM_BOND_UDEF_STEREO_COUNT>
0

> <PUBCHEM_ISOTOPIC_ATOM_COUNT>
0

> <PUBCHEM_COMPONENT_COUNT>
1

> <PUBCHEM_CACTVS_TAUTO_COUNT>
-1

> <PUBCHEM_COORDINATE_TYPE>
1
5
255

> <PUBCHEM_BONDANNOTATIONS>
1  3  8
1  5  8
2  4  8
2  6  8
3  4  8
5  6  8

$$$$
4650
  -OEChem-02061913062D

  8  8  0     0  0  0  0  0  0999 V2000
    2.8660    2.0000    0.0000 O   0  0  0  0  0  0  0  0  0  0  0  0
    2.8660   -2.0000    0.0000 O   0  0  0  0  0  0  0  0  0  0  0  0
    2.8660    1.0000    0.0000 C   0  0  0  0  0  0  0  0  0  0  0  0
    2.8660   -1.0000    0.0000 C   0  0  0  0  0  0  0  0  0  0  0  0
    2.0000    0.5000    0.0000 C   0  0  0  0  0  0  0  0  0  0  0  0
    3.7320    0.5000    0.0000 C   0  0  0  0  0  0  0  0  0  0  0  0
    2.0000   -0.5000    0.0000 C   0  0  0  0  0  0  0  0  0  0  0  0
    3.7320   -0.5000    0.0000 C   0  0  0  0  0  0  0  0  0  0  0  0
  1  3  2  0  0  0  0
  2  4  2  0  0  0  0
  3  5  1  0  0  0  0
  3  6  1  0  0  0  0
  4  7  1  0  0  0  0
  4  8  1  0  0  0  0
  5  7  2  0  0  0  0
  6  8  2  0  0  0  0
M  END
> <PUBCHEM_COMPOUND_CID>
4650

> <PUBCHEM_COMPOUND_CANONICALIZED>
1

> <PUBCHEM_CACTVS_COMPLEXITY>
149

> <PUBCHEM_CACTVS_HBOND_ACCEPTOR>
2

> <PUBCHEM_CACTVS_HBOND_DONOR>
0

> <PUBCHEM_CACTVS_ROTATABLE_BOND>
0

> <PUBCHEM_CACTVS_SUBSKEYS>
AAADcYBgMAAAAAAAAAAAAAAAAAAAAAAAAAAgAAAAAAAAAAAAAAAAGgAAAAAACASAgAAAAAAAAACIAKBSAAAAAAAgAAAICAAAAEgAAAAAAAAAAAAAAAAIAYIAAAAAAAAAAAAAAAAAAAAAAAAAAAAAAAAAAA==

> <PUBCHEM_IUPAC_OPENEYE_NAME>
1,4-benzoquinone

> <PUBCHEM_IUPAC_CAS_NAME>
cyclohexa-2,5-diene-1,4-dione

> <PUBCHEM_IUPAC_NAME>
cyclohexa-2,5-diene-1,4-dione

> <PUBCHEM_IUPAC_SYSTEMATIC_NAME>
cyclohexa-2,5-diene-1,4-dione

> <PUBCHEM_IUPAC_TRADITIONAL_NAME>
p-benzoquinone

> <PUBCHEM_IUPAC_INCHI>
InChI=1S/C6H4O2/c7-5-1-2-6(8)4-3-5/h1-4H

> <PUBCHEM_IUPAC_INCHIKEY>
AZQWKYJCGOJGHM-UHFFFAOYSA-N

> <PUBCHEM_XLOGP3>
0.2

> <PUBCHEM_EXACT_MASS>
108.021

> <PUBCHEM_MOLECULAR_FORMULA>
C6H4O2

> <PUBCHEM_MOLECULAR_WEIGHT>
108.096

> <PUBCHEM_OPENEYE_CAN_SMILES>
C1=CC(=O)C=CC1=O

> <PUBCHEM_OPENEYE_ISO_SMILES>
C1=CC(=O)C=CC1=O

> <PUBCHEM_CACTVS_TPSA>
34.1

> <PUBCHEM_MONOISOTOPIC_WEIGHT>
108.021

> <PUBCHEM_TOTAL_CHARGE>
0

> <PUBCHEM_HEAVY_ATOM_COUNT>
8

> <PUBCHEM_ATOM_DEF_STEREO_COUNT>
0

> <PUBCHEM_ATOM_UDEF_STEREO_COUNT>
0

> <PUBCHEM_BOND_DEF_STEREO_COUNT>
0

> <PUBCHEM_BOND_UDEF_STEREO_COUNT>
0

> <PUBCHEM_ISOTOPIC_ATOM_COUNT>
0

> <PUBCHEM_COMPONENT_COUNT>
1

> <PUBCHEM_CACTVS_TAUTO_COUNT>
-1

> <PUBCHEM_COORDINATE_TYPE>
1
5
255

$$$$
6734
  -OEChem-02061913072D

 12 14  0     0  0  0  0  0  0999 V2000
    3.8000    0.0454    0.0000 C   0  0  0  0  0  0  0  0  0  0  0  0
    4.3009    1.4697    0.0000 C   0  0  0  0  0  0  0  0  0  0  0  0
    3.3073    1.4893    0.0000 C   0  0  0  0  0  0  0  0  0  0  0  0
    4.6660    0.5454    0.0000 C   0  0  0  0  0  0  0  0  0  0  0  0
    2.9061    0.5800    0.0000 C   0  0  0  0  0  0  0  0  0  0  0  0
    3.8000   -0.9546    0.0000 C   0  0  0  0  0  0  0  0  0  0  0  0
    5.5321    0.0454    0.0000 C   0  0  0  0  0  0  0  0  0  0  0  0
    2.0000    0.0662    0.0000 C   0  0  0  0  0  0  0  0  0  0  0  0
    4.6660   -1.4546    0.0000 C   0  0  0  0  0  0  0  0  0  0  0  0
    2.9061   -1.4893    0.0000 C   0  0  0  0  0  0  0  0  0  0  0  0
    2.0000   -0.9754    0.0000 C   0  0  0  0  0  0  0  0  0  0  0  0
    5.5321   -0.9546    0.0000 C   0  0  0  0  0  0  0  0  0  0  0  0
  1  4  1  0  0  0  0
  1  5  1  0  0  0  0
  1  6  2  0  0  0  0
  2  3  1  0  0  0  0
  2  4  1  0  0  0  0
  3  5  1  0  0  0  0
  4  7  2  0  0  0  0
  5  8  2  0  0  0  0
  6  9  1  0  0  0  0
  6 10  1  0  0  0  0
  7 12  1  0  0  0  0
  8 11  1  0  0  0  0
  9 12  2  0  0  0  0
 10 11  2  0  0  0  0
M  END
> <PUBCHEM_COMPOUND_CID>
6734

> <PUBCHEM_COMPOUND_CANONICALIZED>
1

> <PUBCHEM_CACTVS_COMPLEXITY>
155

> <PUBCHEM_CACTVS_HBOND_ACCEPTOR>
0

> <PUBCHEM_CACTVS_HBOND_DONOR>
0

> <PUBCHEM_CACTVS_ROTATABLE_BOND>
0

> <PUBCHEM_CACTVS_SUBSKEYS>
AAADccBwAAAAAAAAAAAAAAAAAAAAAYAAAAAwYAAAAAAAAGDBUAAAGAAAAAAADACAGAAwAMAAAACAAiBCAAACAAAgAAAIiAAAAIgIICKAERCAIAAggAAIiAcAgMAOgAACAAAQAAAAAAQAACAAAQAACAAAAA==

> <PUBCHEM_IUPAC_OPENEYE_NAME>
1,2-dihydroacenaphthylene

> <PUBCHEM_IUPAC_CAS_NAME>
1,2-dihydroacenaphthylene

> <PUBCHEM_IUPAC_NAME>
1,2-dihydroacenaphthylene

> <PUBCHEM_IUPAC_SYSTEMATIC_NAME>
1,2-dihydroacenaphthylene

> <PUBCHEM_IUPAC_TRADITIONAL_NAME>
acenaphthene

> <PUBCHEM_IUPAC_INCHI>
InChI=1S/C12H10/c1-3-9-4-2-6-11-8-7-10(5-1)12(9)11/h1-6H,7-8H2

> <PUBCHEM_IUPAC_INCHIKEY>
CWRYPZZKDGJXCA-UHFFFAOYSA-N

> <PUBCHEM_XLOGP3>
3.9

> <PUBCHEM_EXACT_MASS>
154.078

> <PUBCHEM_MOLECULAR_FORMULA>
C12H10

> <PUBCHEM_MOLECULAR_WEIGHT>
154.212

> <PUBCHEM_OPENEYE_CAN_SMILES>
C1CC2=CC=CC3=C2C1=CC=C3

> <PUBCHEM_OPENEYE_ISO_SMILES>
C1CC2=CC=CC3=C2C1=CC=C3

> <PUBCHEM_CACTVS_TPSA>
0

> <PUBCHEM_MONOISOTOPIC_WEIGHT>
154.078

> <PUBCHEM_TOTAL_CHARGE>
0

> <PUBCHEM_HEAVY_ATOM_COUNT>
12

> <PUBCHEM_ATOM_DEF_STEREO_COUNT>
0

> <PUBCHEM_ATOM_UDEF_STEREO_COUNT>
0

> <PUBCHEM_BOND_DEF_STEREO_COUNT>
0

> <PUBCHEM_BOND_UDEF_STEREO_COUNT>
0

> <PUBCHEM_ISOTOPIC_ATOM_COUNT>
0

> <PUBCHEM_COMPONENT_COUNT>
1

> <PUBCHEM_CACTVS_TAUTO_COUNT>
-1

> <PUBCHEM_COORDINATE_TYPE>
1
5
255

> <PUBCHEM_BONDANNOTATIONS>
1  4  8
1  5  8
1  6  8
10  11  8
4  7  8
5  8  8
6  10  8
6  9  8
7  12  8
8  11  8
9  12  8

$$$$
7247
  -OEChem-02061913072D

  9  9  0     0  0  0  0  0  0999 V2000
    3.7320    0.5000    0.0000 C   0  0  0  0  0  0  0  0  0  0  0  0
    2.8660    0.0000    0.0000 C   0  0  0  0  0  0  0  0  0  0  0  0
    4.5981   -1.0000    0.0000 C   0  0  0  0  0  0  0  0  0  0  0  0
    4.5981    0.0000    0.0000 C   0  0  0  0  0  0  0  0  0  0  0  0
    2.8660   -1.0000    0.0000 C   0  0  0  0  0  0  0  0  0  0  0  0
    3.7320   -1.5000    0.0000 C   0  0  0  0  0  0  0  0  0  0  0  0
    3.7320    1.5000    0.0000 C   0  0  0  0  0  0  0  0  0  0  0  0
    2.0000    0.5000    0.0000 C   0  0  0  0  0  0  0  0  0  0  0  0
    5.4641   -1.5000    0.0000 C   0  0  0  0  0  0  0  0  0  0  0  0
  1  2  2  0  0  0  0
  1  4  1  0  0  0  0
  1  7  1  0  0  0  0
  2  5  1  0  0  0  0
  2  8  1  0  0  0  0
  3  4  2  0  0  0  0
  3  6  1  0  0  0  0
  3  9  1  0  0  0  0
  5  6  2  0  0  0  0
M  END
> <PUBCHEM_COMPOUND_CID>
7247

> <PUBCHEM_COMPOUND_CANONICALIZED>
1

> <PUBCHEM_CACTVS_COMPLEXITY>
86

> <PUBCHEM_CACTVS_HBOND_ACCEPTOR>
0

> <PUBCHEM_CACTVS_HBOND_DONOR>
0

> <PUBCHEM_CACTVS_ROTATABLE_BOND>
0

> <PUBCHEM_CACTVS_SUBSKEYS>
AAADccBwAAAAAAAAAAAAAAAAAAAAAAAAAAAwAAAAAAAAAAABAAAAGAAAAAAADACAGAAyAIAAAACAAiBCAAACAAAgAAAIiAAAAIgIICKAERCAIAAggAAIiAcAgMAOwAACAAAQAACAAAQAACAAAAAAAAAAAA==

> <PUBCHEM_IUPAC_OPENEYE_NAME>
1,2,4-trimethylbenzene

> <PUBCHEM_IUPAC_CAS_NAME>
1,2,4-trimethylbenzene

> <PUBCHEM_IUPAC_NAME>
1,2,4-trimethylbenzene

> <PUBCHEM_IUPAC_SYSTEMATIC_NAME>
1,2,4-trimethylbenzene

> <PUBCHEM_IUPAC_TRADITIONAL_NAME>
pseudocumene

> <PUBCHEM_IUPAC_INCHI>
InChI=1S/C9H12/c1-7-4-5-8(2)9(3)6-7/h4-6H,1-3H3

> <PUBCHEM_IUPAC_INCHIKEY>
GWHJZXXIDMPWGX-UHFFFAOYSA-N

> <PUBCHEM_XLOGP3_AA>
3

> <PUBCHEM_EXACT_MASS>
120.094

> <PUBCHEM_MOLECULAR_FORMULA>
C9H12

> <PUBCHEM_MOLECULAR_WEIGHT>
120.195

> <PUBCHEM_OPENEYE_CAN_SMILES>
CC1=CC(=C(C=C1)C)C

> <PUBCHEM_OPENEYE_ISO_SMILES>
CC1=CC(=C(C=C1)C)C

> <PUBCHEM_CACTVS_TPSA>
0

> <PUBCHEM_MONOISOTOPIC_WEIGHT>
120.094

> <PUBCHEM_TOTAL_CHARGE>
0

> <PUBCHEM_HEAVY_ATOM_COUNT>
9

> <PUBCHEM_ATOM_DEF_STEREO_COUNT>
0

> <PUBCHEM_ATOM_UDEF_STEREO_COUNT>
0

> <PUBCHEM_BOND_DEF_STEREO_COUNT>
0

> <PUBCHEM_BOND_UDEF_STEREO_COUNT>
0

> <PUBCHEM_ISOTOPIC_ATOM_COUNT>
0

> <PUBCHEM_COMPONENT_COUNT>
1

> <PUBCHEM_CACTVS_TAUTO_COUNT>
-1

> <PUBCHEM_COORDINATE_TYPE>
1
5
255

> <PUBCHEM_BONDANNOTATIONS>
1  2  8
1  4  8
2  5  8
3  4  8
3  6  8
5  6  8

$$$$
7834
  -OEChem-02061913072D

  5  5  0     1  0  0  0  0  0999 V2000
    3.3660   -1.1830    0.0000 O   0  0  0  0  0  0  0  0  0  0  0  0
    2.8660   -0.3170    0.0000 C   0  0  3  0  0  0  0  0  0  0  0  0
    3.8660   -0.3170    0.0000 C   0  0  0  0  0  0  0  0  0  0  0  0
    2.0000    0.1830    0.0000 C   0  0  0  0  0  0  0  0  0  0  0  0
    2.0000    1.1830    0.0000 C   0  0  0  0  0  0  0  0  0  0  0  0
  1  2  1  0  0  0  0
  1  3  1  0  0  0  0
  2  3  1  0  0  0  0
  2  4  1  0  0  0  0
  4  5  1  0  0  0  0
M  END
> <PUBCHEM_COMPOUND_CID>
7834

> <PUBCHEM_COMPOUND_CANONICALIZED>
1

> <PUBCHEM_CACTVS_COMPLEXITY>
34.6

> <PUBCHEM_CACTVS_HBOND_ACCEPTOR>
1

> <PUBCHEM_CACTVS_HBOND_DONOR>
0

> <PUBCHEM_CACTVS_ROTATABLE_BOND>
1

> <PUBCHEM_CACTVS_SUBSKEYS>
AAADccBgIAAAAAAAAAAAAAAAEgAAAAAAAAAAAAAAAAAAAAAAAAAAGgAAAAAACBSggAICAAAABAAAAAAAAAAAAAAAAAAAAAAAAAAAAAAAAAAAAAAEAAAAAAAAAAAAAAAAAAAAAAAAAAAAAAAAAAAAAAAAAA==

> <PUBCHEM_IUPAC_OPENEYE_NAME>
2-ethyloxirane

> <PUBCHEM_IUPAC_CAS_NAME>
2-ethyloxirane

> <PUBCHEM_IUPAC_NAME>
2-ethyloxirane

> <PUBCHEM_IUPAC_SYSTEMATIC_NAME>
2-ethyloxirane

> <PUBCHEM_IUPAC_TRADITIONAL_NAME>
2-ethyloxirane

> <PUBCHEM_IUPAC_INCHI>
InChI=1S/C4H8O/c1-2-4-3-5-4/h4H,2-3H2,1H3

> <PUBCHEM_IUPAC_INCHIKEY>
RBACIKXCRWGCBB-UHFFFAOYSA-N

> <PUBCHEM_XLOGP3_AA>
0.8

> <PUBCHEM_EXACT_MASS>
72.058

> <PUBCHEM_MOLECULAR_FORMULA>
C4H8O

> <PUBCHEM_MOLECULAR_WEIGHT>
72.107

> <PUBCHEM_OPENEYE_CAN_SMILES>
CCC1CO1

> <PUBCHEM_OPENEYE_ISO_SMILES>
CCC1CO1

> <PUBCHEM_CACTVS_TPSA>
12.5

> <PUBCHEM_MONOISOTOPIC_WEIGHT>
72.058

> <PUBCHEM_TOTAL_CHARGE>
0

> <PUBCHEM_HEAVY_ATOM_COUNT>
5

> <PUBCHEM_ATOM_DEF_STEREO_COUNT>
0

> <PUBCHEM_ATOM_UDEF_STEREO_COUNT>
1

> <PUBCHEM_BOND_DEF_STEREO_COUNT>
0

> <PUBCHEM_BOND_UDEF_STEREO_COUNT>
0

> <PUBCHEM_ISOTOPIC_ATOM_COUNT>
0

> <PUBCHEM_COMPONENT_COUNT>
1

> <PUBCHEM_CACTVS_TAUTO_COUNT>
-1

> <PUBCHEM_COORDINATE_TYPE>
1
5
255

> <PUBCHEM_BONDANNOTATIONS>
2  4  3

$$$$
8027
  -OEChem-02061913072D

  5  5  0     0  0  0  0  0  0999 V2000
    2.8090   -0.4594    0.0000 N   0  0  0  0  0  0  0  0  0  0  0  0
    3.6180    0.1284    0.0000 C   0  0  0  0  0  0  0  0  0  0  0  0
    2.0000    0.1284    0.0000 C   0  0  0  0  0  0  0  0  0  0  0  0
    3.3090    1.0794    0.0000 C   0  0  0  0  0  0  0  0  0  0  0  0
    2.3090    1.0794    0.0000 C   0  0  0  0  0  0  0  0  0  0  0  0
  1  2  1  0  0  0  0
  1  3  1  0  0  0  0
  2  4  2  0  0  0  0
  3  5  2  0  0  0  0
  4  5  1  0  0  0  0
M  END
> <PUBCHEM_COMPOUND_CID>
8027

> <PUBCHEM_COMPOUND_CANONICALIZED>
1

> <PUBCHEM_CACTVS_COMPLEXITY>
22.8

> <PUBCHEM_CACTVS_HBOND_ACCEPTOR>
0

> <PUBCHEM_CACTVS_HBOND_DONOR>
1

> <PUBCHEM_CACTVS_ROTATABLE_BOND>
0

> <PUBCHEM_CACTVS_SUBSKEYS>
AAADcYBiAAAAAAAAAAAAAAAAAAAAAWAAAAAAAAAAAAAAAAABgAAAHAAQAAAACADBEgQ8gJLJkACgADBnRACCgCAxAiAI2aA4ZJgIIMBAgYEEAAhAEADAQAAAAAAAAAAAAAAAAAAAAAAAAAAAAAAAAAAAAA==

> <PUBCHEM_IUPAC_OPENEYE_NAME>
pyrrole

> <PUBCHEM_IUPAC_CAS_NAME>
1~{H}-pyrrole

> <PUBCHEM_IUPAC_NAME>
1~{H}-pyrrole

> <PUBCHEM_IUPAC_SYSTEMATIC_NAME>
1~{H}-pyrrole

> <PUBCHEM_IUPAC_TRADITIONAL_NAME>
pyrrole

> <PUBCHEM_IUPAC_INCHI>
InChI=1S/C4H5N/c1-2-4-5-3-1/h1-5H

> <PUBCHEM_IUPAC_INCHIKEY>
KAESVJOAVNADME-UHFFFAOYSA-N

> <PUBCHEM_XLOGP3>
0.7

> <PUBCHEM_EXACT_MASS>
67.042

> <PUBCHEM_MOLECULAR_FORMULA>
C4H5N

> <PUBCHEM_MOLECULAR_WEIGHT>
67.091

> <PUBCHEM_OPENEYE_CAN_SMILES>
C1=CNC=C1

> <PUBCHEM_OPENEYE_ISO_SMILES>
C1=CNC=C1

> <PUBCHEM_CACTVS_TPSA>
15.8

> <PUBCHEM_MONOISOTOPIC_WEIGHT>
67.042

> <PUBCHEM_TOTAL_CHARGE>
0

> <PUBCHEM_HEAVY_ATOM_COUNT>
5

> <PUBCHEM_ATOM_DEF_STEREO_COUNT>
0

> <PUBCHEM_ATOM_UDEF_STEREO_COUNT>
0

> <PUBCHEM_BOND_DEF_STEREO_COUNT>
0

> <PUBCHEM_BOND_UDEF_STEREO_COUNT>
0

> <PUBCHEM_ISOTOPIC_ATOM_COUNT>
0

> <PUBCHEM_COMPONENT_COUNT>
1

> <PUBCHEM_CACTVS_TAUTO_COUNT>
-1

> <PUBCHEM_COORDINATE_TYPE>
1
5
255

> <PUBCHEM_BONDANNOTATIONS>
1  2  8
1  3  8
2  4  8
3  5  8
4  5  8

$$$$
31268
  -OEChem-02061913062D

  5  5  0     0  0  0  0  0  0999 V2000
    2.8090   -0.4594    0.0000 N   0  0  0  0  0  0  0  0  0  0  0  0
    3.3090    1.0794    0.0000 C   0  0  0  0  0  0  0  0  0  0  0  0
    2.3090    1.0794    0.0000 C   0  0  0  0  0  0  0  0  0  0  0  0
    3.6180    0.1284    0.0000 C   0  0  0  0  0  0  0  0  0  0  0  0
    2.0000    0.1284    0.0000 C   0  0  0  0  0  0  0  0  0  0  0  0
  1  4  1  0  0  0  0
  1  5  1  0  0  0  0
  2  3  1  0  0  0  0
  2  4  1  0  0  0  0
  3  5  1  0  0  0  0
M  END
> <PUBCHEM_COMPOUND_CID>
31268

> <PUBCHEM_COMPOUND_CANONICALIZED>
1

> <PUBCHEM_CACTVS_COMPLEXITY>
22.8

> <PUBCHEM_CACTVS_HBOND_ACCEPTOR>
1

> <PUBCHEM_CACTVS_HBOND_DONOR>
1

> <PUBCHEM_CACTVS_ROTATABLE_BOND>
0

> <PUBCHEM_CACTVS_SUBSKEYS>
AAADccBiAAAAAAAAAAAAAAAAAAAAAWAAAAAAAAAAAAAAAAAAAAAAHAAQAAAACADBAAQAAALAAAAAAAAAAAAAAAAAAAAAAIAIAAAAAAAAgAAEAAAAEACAAAAAAAAAAAAAAAAAAAAAAAAAAAAAAAAAAAAAAA==

> <PUBCHEM_IUPAC_OPENEYE_NAME>
pyrrolidine

> <PUBCHEM_IUPAC_CAS_NAME>
pyrrolidine

> <PUBCHEM_IUPAC_NAME>
pyrrolidine

> <PUBCHEM_IUPAC_SYSTEMATIC_NAME>
pyrrolidine

> <PUBCHEM_IUPAC_TRADITIONAL_NAME>
pyrrolidine

> <PUBCHEM_IUPAC_INCHI>
InChI=1S/C4H9N/c1-2-4-5-3-1/h5H,1-4H2

> <PUBCHEM_IUPAC_INCHIKEY>
RWRDLPDLKQPQOW-UHFFFAOYSA-N

> <PUBCHEM_XLOGP3>
0.5

> <PUBCHEM_EXACT_MASS>
71.073

> <PUBCHEM_MOLECULAR_FORMULA>
C4H9N

> <PUBCHEM_MOLECULAR_WEIGHT>
71.123

> <PUBCHEM_OPENEYE_CAN_SMILES>
C1CCNC1

> <PUBCHEM_OPENEYE_ISO_SMILES>
C1CCNC1

> <PUBCHEM_CACTVS_TPSA>
12

> <PUBCHEM_MONOISOTOPIC_WEIGHT>
71.073

> <PUBCHEM_TOTAL_CHARGE>
0

> <PUBCHEM_HEAVY_ATOM_COUNT>
5

> <PUBCHEM_ATOM_DEF_STEREO_COUNT>
0

> <PUBCHEM_ATOM_UDEF_STEREO_COUNT>
0

> <PUBCHEM_BOND_DEF_STEREO_COUNT>
0

> <PUBCHEM_BOND_UDEF_STEREO_COUNT>
0

> <PUBCHEM_ISOTOPIC_ATOM_COUNT>
0

> <PUBCHEM_COMPONENT_COUNT>
1

> <PUBCHEM_CACTVS_TAUTO_COUNT>
-1

> <PUBCHEM_COORDINATE_TYPE>
1
5
255

$$$$
16606
  -OEChem-02061913072D

 12 13  0     1  0  0  0  0  0999 V2000
    3.2320    3.1830    0.0000 O   0  0  0  0  0  0  0  0  0  0  0  0
    2.8660    0.8170    0.0000 O   0  0  0  0  0  0  0  0  0  0  0  0
    3.7320    2.3170    0.0000 C   0  0  3  0  0  0  0  0  0  0  0  0
    4.2320    3.1830    0.0000 C   0  0  0  0  0  0  0  0  0  0  0  0
    3.7320    1.3170    0.0000 C   0  0  0  0  0  0  0  0  0  0  0  0
    2.8660   -0.1830    0.0000 C   0  0  0  0  0  0  0  0  0  0  0  0
    2.0000   -0.6830    0.0000 C   0  0  0  0  0  0  0  0  0  0  0  0
    3.7320   -0.6830    0.0000 C   0  0  0  0  0  0  0  0  0  0  0  0
    2.8660   -2.1830    0.0000 C   0  0  0  0  0  0  0  0  0  0  0  0
    2.0000   -1.6830    0.0000 C   0  0  0  0  0  0  0  0  0  0  0  0
    3.7320   -1.6830    0.0000 C   0  0  0  0  0  0  0  0  0  0  0  0
    2.8660   -3.1830    0.0000 C   0  0  0  0  0  0  0  0  0  0  0  0
  1  3  1  0  0  0  0
  1  4  1  0  0  0  0
  2  5  1  0  0  0  0
  2  6  1  0  0  0  0
  3  4  1  0  0  0  0
  3  5  1  0  0  0  0
  6  7  2  0  0  0  0
  6  8  1  0  0  0  0
  7 10  1  0  0  0  0
  8 11  2  0  0  0  0
  9 10  2  0  0  0  0
  9 11  1  0  0  0  0
  9 12  1  0  0  0  0
M  END
> <PUBCHEM_COMPOUND_CID>
16606

> <PUBCHEM_COMPOUND_CANONICALIZED>
1

> <PUBCHEM_CACTVS_COMPLEXITY>
139

> <PUBCHEM_CACTVS_HBOND_ACCEPTOR>
2

> <PUBCHEM_CACTVS_HBOND_DONOR>
0

> <PUBCHEM_CACTVS_ROTATABLE_BOND>
3

> <PUBCHEM_CACTVS_SUBSKEYS>
AAADccBwMAAAAAAAAAAAAAAAEgAAAAAAAAAwAAAAAAAAAAABAAAAGgAAAAAADBSgmAIyBoAABACAAiBCAAACCAAgIAAIiAAGCIgNJiKEMRqCOCClwBEKqAeAwAAOIAAAAAAAAABAAAAAAAAAAAAAAAAAAA==

> <PUBCHEM_IUPAC_OPENEYE_NAME>
2-[(4-methylphenoxy)methyl]oxirane

> <PUBCHEM_IUPAC_CAS_NAME>
2-[(4-methylphenoxy)methyl]oxirane

> <PUBCHEM_IUPAC_NAME>
2-[(4-methylphenoxy)methyl]oxirane

> <PUBCHEM_IUPAC_SYSTEMATIC_NAME>
2-[(4-methylphenoxy)methyl]oxirane

> <PUBCHEM_IUPAC_TRADITIONAL_NAME>
2-[(4-methylphenoxy)methyl]oxirane

> <PUBCHEM_IUPAC_INCHI>
InChI=1S/C10H12O2/c1-8-2-4-9(5-3-8)11-6-10-7-12-10/h2-5,10H,6-7H2,1H3

> <PUBCHEM_IUPAC_INCHIKEY>
CUFXMPWHOWYNSO-UHFFFAOYSA-N

> <PUBCHEM_XLOGP3_AA>
2

> <PUBCHEM_EXACT_MASS>
164.084

> <PUBCHEM_MOLECULAR_FORMULA>
C10H12O2

> <PUBCHEM_MOLECULAR_WEIGHT>
164.204

> <PUBCHEM_OPENEYE_CAN_SMILES>
CC1=CC=C(C=C1)OCC2CO2

> <PUBCHEM_OPENEYE_ISO_SMILES>
CC1=CC=C(C=C1)OCC2CO2

> <PUBCHEM_CACTVS_TPSA>
21.8

> <PUBCHEM_MONOISOTOPIC_WEIGHT>
164.084

> <PUBCHEM_TOTAL_CHARGE>
0

> <PUBCHEM_HEAVY_ATOM_COUNT>
12

> <PUBCHEM_ATOM_DEF_STEREO_COUNT>
0

> <PUBCHEM_ATOM_UDEF_STEREO_COUNT>
1

> <PUBCHEM_BOND_DEF_STEREO_COUNT>
0

> <PUBCHEM_BOND_UDEF_STEREO_COUNT>
0

> <PUBCHEM_ISOTOPIC_ATOM_COUNT>
0

> <PUBCHEM_COMPONENT_COUNT>
1

> <PUBCHEM_CACTVS_TAUTO_COUNT>
-1

> <PUBCHEM_COORDINATE_TYPE>
1
5
255

> <PUBCHEM_BONDANNOTATIONS>
3  13  3
6  7  8
6  8  8
7  10  8
8  11  8
9  10  8
9  11  8

$$$$
999
  -OEChem-02061913062D

 10 10  0     0  0  0  0  0  0999 V2000
    3.7320    2.0950    0.0000 O   0  0  0  0  0  0  0  0  0  0  0  0
    4.5981    0.5950    0.0000 O   0  0  0  0  0  0  0  0  0  0  0  0
    2.8660   -0.4050    0.0000 C   0  0  0  0  0  0  0  0  0  0  0  0
    2.8660    0.5950    0.0000 C   0  0  0  0  0  0  0  0  0  0  0  0
    2.0000   -0.9050    0.0000 C   0  0  0  0  0  0  0  0  0  0  0  0
    3.7320   -0.9050    0.0000 C   0  0  0  0  0  0  0  0  0  0  0  0
    2.0000   -1.9050    0.0000 C   0  0  0  0  0  0  0  0  0  0  0  0
    3.7320   -1.9050    0.0000 C   0  0  0  0  0  0  0  0  0  0  0  0
    2.8660   -2.4050    0.0000 C   0  0  0  0  0  0  0  0  0  0  0  0
    3.7320    1.0950    0.0000 C   0  0  0  0  0  0  0  0  0  0  0  0
  1 10  1  0  0  0  0
  2 10  2  0  0  0  0
  3  4  1  0  0  0  0
  3  5  2  0  0  0  0
  3  6  1  0  0  0  0
  4 10  1  0  0  0  0
  5  7  1  0  0  0  0
  6  8  2  0  0  0  0
  7  9  2  0  0  0  0
  8  9  1  0  0  0  0
M  END
> <PUBCHEM_COMPOUND_CID>
999

> <PUBCHEM_COMPOUND_CANONICALIZED>
1

> <PUBCHEM_CACTVS_COMPLEXITY>
114

> <PUBCHEM_CACTVS_HBOND_ACCEPTOR>
2

> <PUBCHEM_CACTVS_HBOND_DONOR>
1

> <PUBCHEM_CACTVS_ROTATABLE_BOND>
2

> <PUBCHEM_CACTVS_SUBSKEYS>
AAADccBwMAAAAAAAAAAAAAAAAAAAAAAAAAAwAAAAAAAAAAABAAAAGgAACAAADACAmAAwCIAAAgCIAiDSCAACAAAgAAAIiAEAAIgIIDKAFRCAYAAkwAEIiAeIyKCOAAAAAAAAAAAAAAAAAAAAAAAAAAAAAA==

> <PUBCHEM_IUPAC_OPENEYE_NAME>
2-phenylacetic acid

> <PUBCHEM_IUPAC_CAS_NAME>
2-phenylacetic acid

> <PUBCHEM_IUPAC_NAME>
2-phenylacetic acid

> <PUBCHEM_IUPAC_SYSTEMATIC_NAME>
2-phenylethanoic acid

> <PUBCHEM_IUPAC_TRADITIONAL_NAME>
2-phenylacetic acid

> <PUBCHEM_IUPAC_INCHI>
InChI=1S/C8H8O2/c9-8(10)6-7-4-2-1-3-5-7/h1-5H,6H2,(H,9,10)

> <PUBCHEM_IUPAC_INCHIKEY>
WLJVXDMOQOGPHL-UHFFFAOYSA-N

> <PUBCHEM_XLOGP3>
1.4

> <PUBCHEM_EXACT_MASS>
136.052

> <PUBCHEM_MOLECULAR_FORMULA>
C8H8O2

> <PUBCHEM_MOLECULAR_WEIGHT>
136.15

> <PUBCHEM_OPENEYE_CAN_SMILES>
C1=CC=C(C=C1)CC(=O)O

> <PUBCHEM_OPENEYE_ISO_SMILES>
C1=CC=C(C=C1)CC(=O)O

> <PUBCHEM_CACTVS_TPSA>
37.3

> <PUBCHEM_MONOISOTOPIC_WEIGHT>
136.052

> <PUBCHEM_TOTAL_CHARGE>
0

> <PUBCHEM_HEAVY_ATOM_COUNT>
10

> <PUBCHEM_ATOM_DEF_STEREO_COUNT>
0

> <PUBCHEM_ATOM_UDEF_STEREO_COUNT>
0

> <PUBCHEM_BOND_DEF_STEREO_COUNT>
0

> <PUBCHEM_BOND_UDEF_STEREO_COUNT>
0

> <PUBCHEM_ISOTOPIC_ATOM_COUNT>
0

> <PUBCHEM_COMPONENT_COUNT>
1

> <PUBCHEM_CACTVS_TAUTO_COUNT>
-1

> <PUBCHEM_COORDINATE_TYPE>
1
5
255

> <PUBCHEM_BONDANNOTATIONS>
3  5  8
3  6  8
5  7  8
6  8  8
7  9  8
8  9  8

$$$$
46782954
  -OEChem-02061914162D

 23 24  0     1  0  0  0  0  0999 V2000
    5.8671    0.7306    0.0000 O   0  0  0  0  0  0  0  0  0  0  0  0
    6.8671   -0.2694    0.0000 O   0  0  0  0  0  0  0  0  0  0  0  0
    5.1350   -0.2694    0.0000 O   0  0  0  0  0  0  0  0  0  0  0  0
    8.1271    1.9906    0.0000 O   0  0  0  0  0  0  0  0  0  0  0  0
    6.3671    3.2694    0.0000 O   0  0  0  0  0  0  0  0  0  0  0  0
    6.8671   -2.2694    0.0000 O   0  0  0  0  0  0  0  0  0  0  0  0
    5.1350   -3.2694    0.0000 O   0  0  0  0  0  0  0  0  0  0  0  0
    3.4030   -2.2694    0.0000 O   0  0  0  0  0  0  0  0  0  0  0  0
    8.5613    1.0907    0.0000 O   0  0  0  0  0  0  0  0  0  0  0  0
    4.3991    2.9688    0.0000 O   0  0  0  0  0  0  0  0  0  0  0  0
    2.5369   -0.7694    0.0000 O   0  0  0  0  0  0  0  0  0  0  0  0
    6.8671    0.7306    0.0000 C   0  0  1  0  0  0  0  0  0  0  0  0
    7.1761    1.6816    0.0000 C   0  0  3  0  0  0  0  0  0  0  0  0
    6.3671    2.2694    0.0000 C   0  0  2  0  0  0  0  0  0  0  0  0
    5.5580    1.6816    0.0000 C   0  0  1  0  0  0  0  0  0  0  0  0
    6.0010   -0.7694    0.0000 C   0  0  1  0  0  0  0  0  0  0  0  0
    6.0010   -1.7694    0.0000 C   0  0  3  0  0  0  0  0  0  0  0  0
    5.1350   -2.2694    0.0000 C   0  0  2  0  0  0  0  0  0  0  0  0
    4.2690   -1.7694    0.0000 C   0  0  1  0  0  0  0  0  0  0  0  0
    4.2690   -0.7694    0.0000 C   0  0  3  0  0  0  0  0  0  0  0  0
    7.8181    0.4216    0.0000 C   0  0  0  0  0  0  0  0  0  0  0  0
    4.6070    1.9906    0.0000 C   0  0  0  0  0  0  0  0  0  0  0  0
    3.4030   -0.2694    0.0000 C   0  0  0  0  0  0  0  0  0  0  0  0
  1 12  1  0  0  0  0
  1 15  1  0  0  0  0
 12  2  1  6  0  0  0
 16  2  1  6  0  0  0
  3 16  1  0  0  0  0
  3 20  1  0  0  0  0
  4 13  1  0  0  0  0
 14  5  1  6  0  0  0
  6 17  1  0  0  0  0
 18  7  1  1  0  0  0
 19  8  1  6  0  0  0
  9 21  1  0  0  0  0
 10 22  1  0  0  0  0
 11 23  1  0  0  0  0
 12 13  1  0  0  0  0
 12 21  1  0  0  0  0
 13 14  1  0  0  0  0
 14 15  1  0  0  0  0
 15 22  1  6  0  0  0
 16 17  1  0  0  0  0
 17 18  1  0  0  0  0
 18 19  1  0  0  0  0
 19 20  1  0  0  0  0
 20 23  1  0  0  0  0
M  END
> <PUBCHEM_COMPOUND_CID>
46782954

> <PUBCHEM_COMPOUND_CANONICALIZED>
1

> <PUBCHEM_CACTVS_COMPLEXITY>
395

> <PUBCHEM_CACTVS_HBOND_ACCEPTOR>
11

> <PUBCHEM_CACTVS_HBOND_DONOR>
8

> <PUBCHEM_CACTVS_ROTATABLE_BOND>
5

> <PUBCHEM_CACTVS_SUBSKEYS>
AAADceBwPAAAAAAAAAAAAAAAAAAAASAAAAAkAAAAAAAAAAAAAAAAGgAACAAACBSwgAMACAAABgAAAAAAAAAAAAAAAAAAAAAAAAAREAIAAAAiQAAFAAAHAAHAYAwAAAAAAAAAAAAAAAAAAAAAAAAAAAAAAA==

> <PUBCHEM_IUPAC_OPENEYE_NAME>
(2~{R},4~{S},5~{S})-2-[(2~{S},4~{R},5~{R})-3,4-dihydroxy-2,5-bis(hydroxymethyl)tetrahydrofuran-2-yl]oxy-6-(hydroxymethyl)tetrahydropyran-3,4,5-triol

> <PUBCHEM_IUPAC_CAS_NAME>
(2~{R},4~{S},5~{S})-2-[[(2~{S},4~{R},5~{R})-3,4-dihydroxy-2,5-bis(hydroxymethyl)-2-oxolanyl]oxy]-6-(hydroxymethyl)oxane-3,4,5-triol

> <PUBCHEM_IUPAC_NAME>
(2~{R},4~{S},5~{S})-2-[(2~{S},4~{R},5~{R})-3,4-dihydroxy-2,5-bis(hydroxymethyl)oxolan-2-yl]oxy-6-(hydroxymethyl)oxane-3,4,5-triol

> <PUBCHEM_IUPAC_SYSTEMATIC_NAME>
(2~{R},4~{S},5~{S})-2-[(2~{S},4~{R},5~{R})-2,5-bis(hydroxymethyl)-3,4-bis(oxidanyl)oxolan-2-yl]oxy-6-(hydroxymethyl)oxane-3,4,5-triol

> <PUBCHEM_IUPAC_TRADITIONAL_NAME>
(2~{R},4~{S},5~{S})-2-[(2~{S},4~{R},5~{R})-3,4-dihydroxy-2,5-dimethylol-tetrahydrofuran-2-yl]oxy-6-methylol-tetrahydropyran-3,4,5-triol

> <PUBCHEM_IUPAC_INCHI>
InChI=1S/C12H22O11/c13-1-4-6(16)8(18)9(19)11(21-4)23-12(3-15)10(20)7(17)5(2-14)22-12/h4-11,13-20H,1-3H2/t4?,5-,6-,7+,8+,9?,10?,11-,12+/m1/s1

> <PUBCHEM_IUPAC_INCHIKEY>
CZMRCDWAGMRECN-MPZPMKCMSA-N

> <PUBCHEM_XLOGP3>
-3.7

> <PUBCHEM_EXACT_MASS>
342.116

> <PUBCHEM_MOLECULAR_FORMULA>
C12H22O11

> <PUBCHEM_MOLECULAR_WEIGHT>
342.297

> <PUBCHEM_OPENEYE_CAN_SMILES>
C(C1C(C(C(C(O1)OC2(C(C(C(O2)CO)O)O)CO)O)O)O)O

> <PUBCHEM_OPENEYE_ISO_SMILES>
C([C@@H]1[C@@H](C([C@](O1)(CO)O[C@@H]2C([C@H]([C@@H](C(O2)CO)O)O)O)O)O)O

> <PUBCHEM_CACTVS_TPSA>
190

> <PUBCHEM_MONOISOTOPIC_WEIGHT>
342.116

> <PUBCHEM_TOTAL_CHARGE>
0

> <PUBCHEM_HEAVY_ATOM_COUNT>
23

> <PUBCHEM_ATOM_DEF_STEREO_COUNT>
6

> <PUBCHEM_ATOM_UDEF_STEREO_COUNT>
3

> <PUBCHEM_BOND_DEF_STEREO_COUNT>
0

> <PUBCHEM_BOND_UDEF_STEREO_COUNT>
0

> <PUBCHEM_ISOTOPIC_ATOM_COUNT>
0

> <PUBCHEM_COMPONENT_COUNT>
1

> <PUBCHEM_CACTVS_TAUTO_COUNT>
-1

> <PUBCHEM_COORDINATE_TYPE>
1
5
255

> <PUBCHEM_BONDANNOTATIONS>
15  22  6
12  2  6
16  2  6
20  23  3
13  4  3
14  5  6
17  6  3
18  7  5
19  8  6

$$$$
8404
  -OEChem-02061913072D

 10 11  0     0  0  0  0  0  0999 V2000
    2.0000    0.5000    0.0000 C   0  0  0  0  0  0  0  0  0  0  0  0
    2.0000   -0.5000    0.0000 C   0  0  0  0  0  0  0  0  0  0  0  0
    2.8660    1.0000    0.0000 C   0  0  0  0  0  0  0  0  0  0  0  0
    2.8660   -1.0000    0.0000 C   0  0  0  0  0  0  0  0  0  0  0  0
    3.7320    0.5000    0.0000 C   0  0  0  0  0  0  0  0  0  0  0  0
    3.7320   -0.5000    0.0000 C   0  0  0  0  0  0  0  0  0  0  0  0
    4.6260    1.0347    0.0000 C   0  0  0  0  0  0  0  0  0  0  0  0
    4.6260   -1.0347    0.0000 C   0  0  0  0  0  0  0  0  0  0  0  0
    5.5321   -0.5208    0.0000 C   0  0  0  0  0  0  0  0  0  0  0  0
    5.5321    0.5208    0.0000 C   0  0  0  0  0  0  0  0  0  0  0  0
  1  2  1  0  0  0  0
  1  3  1  0  0  0  0
  2  4  1  0  0  0  0
  3  5  1  0  0  0  0
  4  6  1  0  0  0  0
  5  6  1  0  0  0  0
  5  7  2  0  0  0  0
  6  8  2  0  0  0  0
  7 10  1  0  0  0  0
  8  9  1  0  0  0  0
  9 10  2  0  0  0  0
M  END
> <PUBCHEM_COMPOUND_CID>
8404

> <PUBCHEM_COMPOUND_CANONICALIZED>
1

> <PUBCHEM_CACTVS_COMPLEXITY>
92.6

> <PUBCHEM_CACTVS_HBOND_ACCEPTOR>
0

> <PUBCHEM_CACTVS_HBOND_DONOR>
0

> <PUBCHEM_CACTVS_ROTATABLE_BOND>
0

> <PUBCHEM_CACTVS_SUBSKEYS>
AAADccBwAAAAAAAAAAAAAAAAAAAAAAAAAAAwYAAAAAAAAADBAAAAGAAAAAAADACAGAAwAIAAAACAAiBCAAACAAAgAAAIiAAAAIgIICKAERCAIAAggAAIiAcAgIAOgAAAAAAQAAAAAAAAACAAAAAAAAAAAA==

> <PUBCHEM_IUPAC_OPENEYE_NAME>
tetralin

> <PUBCHEM_IUPAC_CAS_NAME>
1,2,3,4-tetrahydronaphthalene

> <PUBCHEM_IUPAC_NAME>
1,2,3,4-tetrahydronaphthalene

> <PUBCHEM_IUPAC_SYSTEMATIC_NAME>
1,2,3,4-tetrahydronaphthalene

> <PUBCHEM_IUPAC_TRADITIONAL_NAME>
tetralin

> <PUBCHEM_IUPAC_INCHI>
InChI=1S/C10H12/c1-2-6-10-8-4-3-7-9(10)5-1/h1-2,5-6H,3-4,7-8H2

> <PUBCHEM_IUPAC_INCHIKEY>
CXWXQJXEFPUFDZ-UHFFFAOYSA-N

> <PUBCHEM_XLOGP3>
3.5

> <PUBCHEM_EXACT_MASS>
132.094

> <PUBCHEM_MOLECULAR_FORMULA>
C10H12

> <PUBCHEM_MOLECULAR_WEIGHT>
132.206

> <PUBCHEM_OPENEYE_CAN_SMILES>
C1CCC2=CC=CC=C2C1

> <PUBCHEM_OPENEYE_ISO_SMILES>
C1CCC2=CC=CC=C2C1

> <PUBCHEM_CACTVS_TPSA>
0

> <PUBCHEM_MONOISOTOPIC_WEIGHT>
132.094

> <PUBCHEM_TOTAL_CHARGE>
0

> <PUBCHEM_HEAVY_ATOM_COUNT>
10

> <PUBCHEM_ATOM_DEF_STEREO_COUNT>
0

> <PUBCHEM_ATOM_UDEF_STEREO_COUNT>
0

> <PUBCHEM_BOND_DEF_STEREO_COUNT>
0

> <PUBCHEM_BOND_UDEF_STEREO_COUNT>
0

> <PUBCHEM_ISOTOPIC_ATOM_COUNT>
0

> <PUBCHEM_COMPONENT_COUNT>
1

> <PUBCHEM_CACTVS_TAUTO_COUNT>
-1

> <PUBCHEM_COORDINATE_TYPE>
1
5
255

> <PUBCHEM_BONDANNOTATIONS>
5  6  8
5  7  8
6  8  8
7  10  8
8  9  8
9  10  8

$$$$
8418
  -OEChem-02061913072D

 14 16  0     0  0  0  0  0  0999 V2000
    5.5321    0.5000    0.0000 C   0  0  0  0  0  0  0  0  0  0  0  0
    5.5321   -0.5000    0.0000 C   0  0  0  0  0  0  0  0  0  0  0  0
    3.8000    0.5000    0.0000 C   0  0  0  0  0  0  0  0  0  0  0  0
    3.8000   -0.5000    0.0000 C   0  0  0  0  0  0  0  0  0  0  0  0
    4.6660   -1.0000    0.0000 C   0  0  0  0  0  0  0  0  0  0  0  0
    4.6660    1.0000    0.0000 C   0  0  0  0  0  0  0  0  0  0  0  0
    6.4260   -1.0347    0.0000 C   0  0  0  0  0  0  0  0  0  0  0  0
    6.4260    1.0347    0.0000 C   0  0  0  0  0  0  0  0  0  0  0  0
    2.9061   -1.0347    0.0000 C   0  0  0  0  0  0  0  0  0  0  0  0
    2.9061    1.0347    0.0000 C   0  0  0  0  0  0  0  0  0  0  0  0
    7.3321    0.5208    0.0000 C   0  0  0  0  0  0  0  0  0  0  0  0
    7.3321   -0.5208    0.0000 C   0  0  0  0  0  0  0  0  0  0  0  0
    2.0000    0.5208    0.0000 C   0  0  0  0  0  0  0  0  0  0  0  0
    2.0000   -0.5208    0.0000 C   0  0  0  0  0  0  0  0  0  0  0  0
  1  2  1  0  0  0  0
  1  6  2  0  0  0  0
  1  8  1  0  0  0  0
  2  5  2  0  0  0  0
  2  7  1  0  0  0  0
  3  4  1  0  0  0  0
  3  6  1  0  0  0  0
  3 10  2  0  0  0  0
  4  5  1  0  0  0  0
  4  9  2  0  0  0  0
  7 12  2  0  0  0  0
  8 11  2  0  0  0  0
  9 14  1  0  0  0  0
 10 13  1  0  0  0  0
 11 12  1  0  0  0  0
 13 14  2  0  0  0  0
M  END
> <PUBCHEM_COMPOUND_CID>
8418

> <PUBCHEM_COMPOUND_CANONICALIZED>
1

> <PUBCHEM_CACTVS_COMPLEXITY>
154

> <PUBCHEM_CACTVS_HBOND_ACCEPTOR>
0

> <PUBCHEM_CACTVS_HBOND_DONOR>
0

> <PUBCHEM_CACTVS_ROTATABLE_BOND>
0

> <PUBCHEM_CACTVS_SUBSKEYS>
AAADccBwAAAAAAAAAAAAAAAAAAAAAAAAAAAwYMAAAAAAAADBVAAAGAAAAAAADACAGAAwAMAAAACAAiBCAAACAAAgAAAIiAAAAIgIICKAERCAIAAggAAIiAcAgMAOwAACAAAQAACAAAQAACAAAAAAAAAAAA==

> <PUBCHEM_IUPAC_OPENEYE_NAME>
anthracene

> <PUBCHEM_IUPAC_CAS_NAME>
anthracene

> <PUBCHEM_IUPAC_NAME>
anthracene

> <PUBCHEM_IUPAC_SYSTEMATIC_NAME>
anthracene

> <PUBCHEM_IUPAC_TRADITIONAL_NAME>
anthracene

> <PUBCHEM_IUPAC_INCHI>
InChI=1S/C14H10/c1-2-6-12-10-14-8-4-3-7-13(14)9-11(12)5-1/h1-10H

> <PUBCHEM_IUPAC_INCHIKEY>
MWPLVEDNUUSJAV-UHFFFAOYSA-N

> <PUBCHEM_XLOGP3>
4.4

> <PUBCHEM_EXACT_MASS>
178.078

> <PUBCHEM_MOLECULAR_FORMULA>
C14H10

> <PUBCHEM_MOLECULAR_WEIGHT>
178.234

> <PUBCHEM_OPENEYE_CAN_SMILES>
C1=CC=C2C=C3C=CC=CC3=CC2=C1

> <PUBCHEM_OPENEYE_ISO_SMILES>
C1=CC=C2C=C3C=CC=CC3=CC2=C1

> <PUBCHEM_CACTVS_TPSA>
0

> <PUBCHEM_MONOISOTOPIC_WEIGHT>
178.078

> <PUBCHEM_TOTAL_CHARGE>
0

> <PUBCHEM_HEAVY_ATOM_COUNT>
14

> <PUBCHEM_ATOM_DEF_STEREO_COUNT>
0

> <PUBCHEM_ATOM_UDEF_STEREO_COUNT>
0

> <PUBCHEM_BOND_DEF_STEREO_COUNT>
0

> <PUBCHEM_BOND_UDEF_STEREO_COUNT>
0

> <PUBCHEM_ISOTOPIC_ATOM_COUNT>
0

> <PUBCHEM_COMPONENT_COUNT>
1

> <PUBCHEM_CACTVS_TAUTO_COUNT>
-1

> <PUBCHEM_COORDINATE_TYPE>
1
5
255

> <PUBCHEM_BONDANNOTATIONS>
1  2  8
1  6  8
1  8  8
10  13  8
11  12  8
13  14  8
2  5  8
2  7  8
3  10  8
3  4  8
3  6  8
4  5  8
4  9  8
7  12  8
8  11  8
9  14  8

$$$$
7296
  -OEChem-02061913072D

  6  6  0     0  0  0  0  0  0999 V2000
    2.8090    0.2694    0.0000 C   0  0  0  0  0  0  0  0  0  0  0  0
    2.0000   -0.3184    0.0000 C   0  0  0  0  0  0  0  0  0  0  0  0
    3.6180   -0.3184    0.0000 C   0  0  0  0  0  0  0  0  0  0  0  0
    3.3090   -1.2694    0.0000 C   0  0  0  0  0  0  0  0  0  0  0  0
    2.3090   -1.2694    0.0000 C   0  0  0  0  0  0  0  0  0  0  0  0
    2.8090    1.2694    0.0000 C   0  0  0  0  0  0  0  0  0  0  0  0
  1  2  1  0  0  0  0
  1  3  1  0  0  0  0
  1  6  1  0  0  0  0
  2  5  1  0  0  0  0
  3  4  1  0  0  0  0
  4  5  1  0  0  0  0
M  END
> <PUBCHEM_COMPOUND_CID>
7296

> <PUBCHEM_COMPOUND_CANONICALIZED>
1

> <PUBCHEM_CACTVS_COMPLEXITY>
33.3

> <PUBCHEM_CACTVS_HBOND_ACCEPTOR>
0

> <PUBCHEM_CACTVS_HBOND_DONOR>
0

> <PUBCHEM_CACTVS_ROTATABLE_BOND>
0

> <PUBCHEM_CACTVS_SUBSKEYS>
AAADccBgAAAAAAAAAAAAAAAAAAAAAYAAAAAAAAAAAAAAAAAAAAAAGAAAAAAADQCAAAACAAAAAAAAAAAAAAAAAAAAAAAAAAAAAAAAAAIAAAAAAAAAAAAAAAEAAAAOAAAAAAAAAAAAAAAAAAAAAAAAAAAAAA==

> <PUBCHEM_IUPAC_OPENEYE_NAME>
methylcyclopentane

> <PUBCHEM_IUPAC_CAS_NAME>
methylcyclopentane

> <PUBCHEM_IUPAC_NAME>
methylcyclopentane

> <PUBCHEM_IUPAC_SYSTEMATIC_NAME>
methylcyclopentane

> <PUBCHEM_IUPAC_TRADITIONAL_NAME>
methylcyclopentane

> <PUBCHEM_IUPAC_INCHI>
InChI=1S/C6H12/c1-6-4-2-3-5-6/h6H,2-5H2,1H3

> <PUBCHEM_IUPAC_INCHIKEY>
GDOPTJXRTPNYNR-UHFFFAOYSA-N

> <PUBCHEM_XLOGP3>
3.4

> <PUBCHEM_EXACT_MASS>
84.094

> <PUBCHEM_MOLECULAR_FORMULA>
C6H12

> <PUBCHEM_MOLECULAR_WEIGHT>
84.162

> <PUBCHEM_OPENEYE_CAN_SMILES>
CC1CCCC1

> <PUBCHEM_OPENEYE_ISO_SMILES>
CC1CCCC1

> <PUBCHEM_CACTVS_TPSA>
0

> <PUBCHEM_MONOISOTOPIC_WEIGHT>
84.094

> <PUBCHEM_TOTAL_CHARGE>
0

> <PUBCHEM_HEAVY_ATOM_COUNT>
6

> <PUBCHEM_ATOM_DEF_STEREO_COUNT>
0

> <PUBCHEM_ATOM_UDEF_STEREO_COUNT>
0

> <PUBCHEM_BOND_DEF_STEREO_COUNT>
0

> <PUBCHEM_BOND_UDEF_STEREO_COUNT>
0

> <PUBCHEM_ISOTOPIC_ATOM_COUNT>
0

> <PUBCHEM_COMPONENT_COUNT>
1

> <PUBCHEM_CACTVS_TAUTO_COUNT>
-1

> <PUBCHEM_COORDINATE_TYPE>
1
5
255

$$$$
31275
  -OEChem-02061913062D

  6  6  0     0  0  0  0  0  0999 V2000
    2.8660   -1.0000    0.0000 O   0  0  0  0  0  0  0  0  0  0  0  0
    2.8660    1.0000    0.0000 O   0  0  0  0  0  0  0  0  0  0  0  0
    2.0000   -0.5000    0.0000 C   0  0  0  0  0  0  0  0  0  0  0  0
    2.0000    0.5000    0.0000 C   0  0  0  0  0  0  0  0  0  0  0  0
    3.7320   -0.5000    0.0000 C   0  0  0  0  0  0  0  0  0  0  0  0
    3.7320    0.5000    0.0000 C   0  0  0  0  0  0  0  0  0  0  0  0
  1  3  1  0  0  0  0
  1  5  1  0  0  0  0
  2  4  1  0  0  0  0
  2  6  1  0  0  0  0
  3  4  1  0  0  0  0
  5  6  1  0  0  0  0
M  END
> <PUBCHEM_COMPOUND_CID>
31275

> <PUBCHEM_COMPOUND_CANONICALIZED>
1

> <PUBCHEM_CACTVS_COMPLEXITY>
26.5

> <PUBCHEM_CACTVS_HBOND_ACCEPTOR>
2

> <PUBCHEM_CACTVS_HBOND_DONOR>
0

> <PUBCHEM_CACTVS_ROTATABLE_BOND>
0

> <PUBCHEM_CACTVS_SUBSKEYS>
AAADccBgMAAAAAAAAAAAAAAAAAAAAAAAAAAkAAAAAAAAAAAAAAAAGgAAAAAAAACggAIAAAAABAAAAAAAAAAAAAAAAAAAAAAAAAABAAAAAAACAAAAAAACAAAAAAAAAAAAAAAAAAAAAAAAAAAAAAAAAAAAAA==

> <PUBCHEM_IUPAC_OPENEYE_NAME>
1,4-dioxane

> <PUBCHEM_IUPAC_CAS_NAME>
1,4-dioxane

> <PUBCHEM_IUPAC_NAME>
1,4-dioxane

> <PUBCHEM_IUPAC_SYSTEMATIC_NAME>
1,4-dioxane

> <PUBCHEM_IUPAC_TRADITIONAL_NAME>
1,4-dioxane

> <PUBCHEM_IUPAC_INCHI>
InChI=1S/C4H8O2/c1-2-6-4-3-5-1/h1-4H2

> <PUBCHEM_IUPAC_INCHIKEY>
RYHBNJHYFVUHQT-UHFFFAOYSA-N

> <PUBCHEM_XLOGP3>
-0.3

> <PUBCHEM_EXACT_MASS>
88.052

> <PUBCHEM_MOLECULAR_FORMULA>
C4H8O2

> <PUBCHEM_MOLECULAR_WEIGHT>
88.106

> <PUBCHEM_OPENEYE_CAN_SMILES>
C1COCCO1

> <PUBCHEM_OPENEYE_ISO_SMILES>
C1COCCO1

> <PUBCHEM_CACTVS_TPSA>
18.5

> <PUBCHEM_MONOISOTOPIC_WEIGHT>
88.052

> <PUBCHEM_TOTAL_CHARGE>
0

> <PUBCHEM_HEAVY_ATOM_COUNT>
6

> <PUBCHEM_ATOM_DEF_STEREO_COUNT>
0

> <PUBCHEM_ATOM_UDEF_STEREO_COUNT>
0

> <PUBCHEM_BOND_DEF_STEREO_COUNT>
0

> <PUBCHEM_BOND_UDEF_STEREO_COUNT>
0

> <PUBCHEM_ISOTOPIC_ATOM_COUNT>
0

> <PUBCHEM_COMPONENT_COUNT>
1

> <PUBCHEM_CACTVS_TAUTO_COUNT>
-1

> <PUBCHEM_COORDINATE_TYPE>
1
5
255

$$$$
6811
  -OEChem-02061913072D

 11 12  0     0  0  0  0  0  0999 V2000
    5.2619    0.0000    0.0000 O   0  0  0  0  0  0  0  0  0  0  0  0
    4.9889    1.7552    0.0000 O   0  0  0  0  0  0  0  0  0  0  0  0
    4.9889   -1.7552    0.0000 O   0  0  0  0  0  0  0  0  0  0  0  0
    3.7320    0.5000    0.0000 C   0  0  0  0  0  0  0  0  0  0  0  0
    3.7320   -0.5000    0.0000 C   0  0  0  0  0  0  0  0  0  0  0  0
    2.8660    1.0000    0.0000 C   0  0  0  0  0  0  0  0  0  0  0  0
    2.8660   -1.0000    0.0000 C   0  0  0  0  0  0  0  0  0  0  0  0
    4.6783    0.8047    0.0000 C   0  0  0  0  0  0  0  0  0  0  0  0
    4.6783   -0.8047    0.0000 C   0  0  0  0  0  0  0  0  0  0  0  0
    2.0000    0.5000    0.0000 C   0  0  0  0  0  0  0  0  0  0  0  0
    2.0000   -0.5000    0.0000 C   0  0  0  0  0  0  0  0  0  0  0  0
  1  8  1  0  0  0  0
  1  9  1  0  0  0  0
  2  8  2  0  0  0  0
  3  9  2  0  0  0  0
  4  5  1  0  0  0  0
  4  6  2  0  0  0  0
  4  8  1  0  0  0  0
  5  7  2  0  0  0  0
  5  9  1  0  0  0  0
  6 10  1  0  0  0  0
  7 11  1  0  0  0  0
 10 11  2  0  0  0  0
M  END
> <PUBCHEM_COMPOUND_CID>
6811

> <PUBCHEM_COMPOUND_CANONICALIZED>
1

> <PUBCHEM_CACTVS_COMPLEXITY>
187

> <PUBCHEM_CACTVS_HBOND_ACCEPTOR>
3

> <PUBCHEM_CACTVS_HBOND_DONOR>
0

> <PUBCHEM_CACTVS_ROTATABLE_BOND>
0

> <PUBCHEM_CACTVS_SUBSKEYS>
AAADcYBwMAAAAAAAAAAAAAAAAAAAASAAAAAwAAAAAAAAAEgBAAAAGgAAAAAADACAmAAwCIAABACIAiDSCAACAAAkAAAIiAEACMgIJjKANRiCMQAkwAEIqYeLyKCOgAAAAAAQAAAAAAAAACAAAAAAAAAAAA==

> <PUBCHEM_IUPAC_OPENEYE_NAME>
isobenzofuran-1,3-dione

> <PUBCHEM_IUPAC_CAS_NAME>
isobenzofuran-1,3-dione

> <PUBCHEM_IUPAC_NAME>
2-benzofuran-1,3-dione

> <PUBCHEM_IUPAC_SYSTEMATIC_NAME>
2-benzofuran-1,3-dione

> <PUBCHEM_IUPAC_TRADITIONAL_NAME>
phthalic anhydride

> <PUBCHEM_IUPAC_INCHI>
InChI=1S/C8H4O3/c9-7-5-3-1-2-4-6(5)8(10)11-7/h1-4H

> <PUBCHEM_IUPAC_INCHIKEY>
LGRFSURHDFAFJT-UHFFFAOYSA-N

> <PUBCHEM_XLOGP3_AA>
1.3

> <PUBCHEM_EXACT_MASS>
148.016

> <PUBCHEM_MOLECULAR_FORMULA>
C8H4O3

> <PUBCHEM_MOLECULAR_WEIGHT>
148.117

> <PUBCHEM_OPENEYE_CAN_SMILES>
C1=CC=C2C(=C1)C(=O)OC2=O

> <PUBCHEM_OPENEYE_ISO_SMILES>
C1=CC=C2C(=C1)C(=O)OC2=O

> <PUBCHEM_CACTVS_TPSA>
43.4

> <PUBCHEM_MONOISOTOPIC_WEIGHT>
148.016

> <PUBCHEM_TOTAL_CHARGE>
0

> <PUBCHEM_HEAVY_ATOM_COUNT>
11

> <PUBCHEM_ATOM_DEF_STEREO_COUNT>
0

> <PUBCHEM_ATOM_UDEF_STEREO_COUNT>
0

> <PUBCHEM_BOND_DEF_STEREO_COUNT>
0

> <PUBCHEM_BOND_UDEF_STEREO_COUNT>
0

> <PUBCHEM_ISOTOPIC_ATOM_COUNT>
0

> <PUBCHEM_COMPONENT_COUNT>
1

> <PUBCHEM_CACTVS_TAUTO_COUNT>
-1

> <PUBCHEM_COORDINATE_TYPE>
1
5
255

> <PUBCHEM_BONDANNOTATIONS>
10  11  8
4  5  8
4  6  8
5  7  8
6  10  8
7  11  8

$$$$
7042
  -OEChem-02061913072D

 10 10  0     0  0  0  0  0  0999 V2000
    4.5981    2.0000    0.0000 N   0  0  0  0  0  0  0  0  0  0  0  0
    2.0000    0.5000    0.0000 N   0  0  0  0  0  0  0  0  0  0  0  0
    4.5981    0.0000    0.0000 C   0  0  0  0  0  0  0  0  0  0  0  0
    3.7320   -0.5000    0.0000 C   0  0  0  0  0  0  0  0  0  0  0  0
    5.4641   -0.5000    0.0000 C   0  0  0  0  0  0  0  0  0  0  0  0
    3.7320   -1.5000    0.0000 C   0  0  0  0  0  0  0  0  0  0  0  0
    5.4641   -1.5000    0.0000 C   0  0  0  0  0  0  0  0  0  0  0  0
    4.5981   -2.0000    0.0000 C   0  0  0  0  0  0  0  0  0  0  0  0
    4.5981    1.0000    0.0000 C   0  0  0  0  0  0  0  0  0  0  0  0
    2.8660    0.0000    0.0000 C   0  0  0  0  0  0  0  0  0  0  0  0
  1  9  3  0  0  0  0
  2 10  3  0  0  0  0
  3  4  1  0  0  0  0
  3  5  2  0  0  0  0
  3  9  1  0  0  0  0
  4  6  2  0  0  0  0
  4 10  1  0  0  0  0
  5  7  1  0  0  0  0
  6  8  1  0  0  0  0
  7  8  2  0  0  0  0
M  END
> <PUBCHEM_COMPOUND_CID>
7042

> <PUBCHEM_COMPOUND_CANONICALIZED>
1

> <PUBCHEM_CACTVS_COMPLEXITY>
178

> <PUBCHEM_CACTVS_HBOND_ACCEPTOR>
2

> <PUBCHEM_CACTVS_HBOND_DONOR>
0

> <PUBCHEM_CACTVS_ROTATABLE_BOND>
0

> <PUBCHEM_CACTVS_SUBSKEYS>
AAADcYBzAAAAAAAAAAAAAAAAAAAAAAAAAAAwAAAAAAAAAAABAAAAHAAAAAAADACBGAAwAIAAAACQBiBCAAAiAAAgAAAIiAAAAIgIoCKAERCAIAAggAAIiA8AgIAOgAAAAAAQAAAAAAAAACAAAAAAAAAAAA==

> <PUBCHEM_IUPAC_OPENEYE_NAME>
phthalonitrile

> <PUBCHEM_IUPAC_CAS_NAME>
benzene-1,2-dicarbonitrile

> <PUBCHEM_IUPAC_NAME>
benzene-1,2-dicarbonitrile

> <PUBCHEM_IUPAC_SYSTEMATIC_NAME>
benzene-1,2-dicarbonitrile

> <PUBCHEM_IUPAC_TRADITIONAL_NAME>
phthalonitrile

> <PUBCHEM_IUPAC_INCHI>
InChI=1S/C8H4N2/c9-5-7-3-1-2-4-8(7)6-10/h1-4H

> <PUBCHEM_IUPAC_INCHIKEY>
XQZYPMVTSDWCCE-UHFFFAOYSA-N

> <PUBCHEM_XLOGP3>
1

> <PUBCHEM_EXACT_MASS>
128.037

> <PUBCHEM_MOLECULAR_FORMULA>
C8H4N2

> <PUBCHEM_MOLECULAR_WEIGHT>
128.134

> <PUBCHEM_OPENEYE_CAN_SMILES>
C1=CC=C(C(=C1)C#N)C#N

> <PUBCHEM_OPENEYE_ISO_SMILES>
C1=CC=C(C(=C1)C#N)C#N

> <PUBCHEM_CACTVS_TPSA>
47.6

> <PUBCHEM_MONOISOTOPIC_WEIGHT>
128.037

> <PUBCHEM_TOTAL_CHARGE>
0

> <PUBCHEM_HEAVY_ATOM_COUNT>
10

> <PUBCHEM_ATOM_DEF_STEREO_COUNT>
0

> <PUBCHEM_ATOM_UDEF_STEREO_COUNT>
0

> <PUBCHEM_BOND_DEF_STEREO_COUNT>
0

> <PUBCHEM_BOND_UDEF_STEREO_COUNT>
0

> <PUBCHEM_ISOTOPIC_ATOM_COUNT>
0

> <PUBCHEM_COMPONENT_COUNT>
1

> <PUBCHEM_CACTVS_TAUTO_COUNT>
-1

> <PUBCHEM_COORDINATE_TYPE>
1
5
255

> <PUBCHEM_BONDANNOTATIONS>
3  4  8
3  5  8
4  6  8
5  7  8
6  8  8
7  8  8

$$$$
7393
  -OEChem-02061913072D

 11 11  0     0  0  0  0  0  0999 V2000
    3.0000   -2.3450    0.0000 O   0  0  0  0  0  0  0  0  0  0  0  0
    3.0000    1.6550    0.0000 C   0  0  0  0  0  0  0  0  0  0  0  0
    3.0000    0.6550    0.0000 C   0  0  0  0  0  0  0  0  0  0  0  0
    3.0000    2.6550    0.0000 C   0  0  0  0  0  0  0  0  0  0  0  0
    4.0000    1.6550    0.0000 C   0  0  0  0  0  0  0  0  0  0  0  0
    2.0000    1.6550    0.0000 C   0  0  0  0  0  0  0  0  0  0  0  0
    2.1340    0.1550    0.0000 C   0  0  0  0  0  0  0  0  0  0  0  0
    3.8660    0.1550    0.0000 C   0  0  0  0  0  0  0  0  0  0  0  0
    2.1340   -0.8450    0.0000 C   0  0  0  0  0  0  0  0  0  0  0  0
    3.8660   -0.8450    0.0000 C   0  0  0  0  0  0  0  0  0  0  0  0
    3.0000   -1.3450    0.0000 C   0  0  0  0  0  0  0  0  0  0  0  0
  1 11  1  0  0  0  0
  2  3  1  0  0  0  0
  2  4  1  0  0  0  0
  2  5  1  0  0  0  0
  2  6  1  0  0  0  0
  3  7  2  0  0  0  0
  3  8  1  0  0  0  0
  7  9  1  0  0  0  0
  8 10  2  0  0  0  0
  9 11  2  0  0  0  0
 10 11  1  0  0  0  0
M  END
> <PUBCHEM_COMPOUND_CID>
7393

> <PUBCHEM_COMPOUND_CANONICALIZED>
1

> <PUBCHEM_CACTVS_COMPLEXITY>
115

> <PUBCHEM_CACTVS_HBOND_ACCEPTOR>
1

> <PUBCHEM_CACTVS_HBOND_DONOR>
1

> <PUBCHEM_CACTVS_ROTATABLE_BOND>
1

> <PUBCHEM_CACTVS_SUBSKEYS>
AAADccBwIAAAAAAAAAAAAAAAAAAAAAAAAAAwAAAAAAAAAAABAAAAGgAACAAADgSAmAAyBoAAAgCAAiBCAAACAAAgIAAIiAAGCIgIJiKCERKAcAAkwBEImAeAwNAPoAAAAAAAAABAAAAAAAAAAAAAAAAAAA==

> <PUBCHEM_IUPAC_OPENEYE_NAME>
4-~{tert}-butylphenol

> <PUBCHEM_IUPAC_CAS_NAME>
4-~{tert}-butylphenol

> <PUBCHEM_IUPAC_NAME>
4-~{tert}-butylphenol

> <PUBCHEM_IUPAC_SYSTEMATIC_NAME>
4-~{tert}-butylphenol

> <PUBCHEM_IUPAC_TRADITIONAL_NAME>
4-~{tert}-butylphenol

> <PUBCHEM_IUPAC_INCHI>
InChI=1S/C10H14O/c1-10(2,3)8-4-6-9(11)7-5-8/h4-7,11H,1-3H3

> <PUBCHEM_IUPAC_INCHIKEY>
QHPQWRBYOIRBIT-UHFFFAOYSA-N

> <PUBCHEM_XLOGP3>
3.3

> <PUBCHEM_EXACT_MASS>
150.104

> <PUBCHEM_MOLECULAR_FORMULA>
C10H14O

> <PUBCHEM_MOLECULAR_WEIGHT>
150.221

> <PUBCHEM_OPENEYE_CAN_SMILES>
CC(C)(C)C1=CC=C(C=C1)O

> <PUBCHEM_OPENEYE_ISO_SMILES>
CC(C)(C)C1=CC=C(C=C1)O

> <PUBCHEM_CACTVS_TPSA>
20.2

> <PUBCHEM_MONOISOTOPIC_WEIGHT>
150.104

> <PUBCHEM_TOTAL_CHARGE>
0

> <PUBCHEM_HEAVY_ATOM_COUNT>
11

> <PUBCHEM_ATOM_DEF_STEREO_COUNT>
0

> <PUBCHEM_ATOM_UDEF_STEREO_COUNT>
0

> <PUBCHEM_BOND_DEF_STEREO_COUNT>
0

> <PUBCHEM_BOND_UDEF_STEREO_COUNT>
0

> <PUBCHEM_ISOTOPIC_ATOM_COUNT>
0

> <PUBCHEM_COMPONENT_COUNT>
1

> <PUBCHEM_CACTVS_TAUTO_COUNT>
-1

> <PUBCHEM_COORDINATE_TYPE>
1
5
255

> <PUBCHEM_BONDANNOTATIONS>
10  11  8
3  7  8
3  8  8
7  9  8
8  10  8
9  11  8

$$$$
7705
  -OEChem-02061913072D

 10 10  0     0  0  0  0  0  0999 V2000
    3.7320    1.0000    0.0000 C   0  0  0  0  0  0  0  0  0  0  0  0
    2.8660    0.5000    0.0000 C   0  0  0  0  0  0  0  0  0  0  0  0
    3.7320    2.0000    0.0000 C   0  0  0  0  0  0  0  0  0  0  0  0
    2.8660   -0.5000    0.0000 C   0  0  0  0  0  0  0  0  0  0  0  0
    4.5981    2.5000    0.0000 C   0  0  0  0  0  0  0  0  0  0  0  0
    2.0000   -1.0000    0.0000 C   0  0  0  0  0  0  0  0  0  0  0  0
    3.7320   -1.0000    0.0000 C   0  0  0  0  0  0  0  0  0  0  0  0
    2.0000   -2.0000    0.0000 C   0  0  0  0  0  0  0  0  0  0  0  0
    3.7320   -2.0000    0.0000 C   0  0  0  0  0  0  0  0  0  0  0  0
    2.8660   -2.5000    0.0000 C   0  0  0  0  0  0  0  0  0  0  0  0
  1  2  1  0  0  0  0
  1  3  1  0  0  0  0
  2  4  1  0  0  0  0
  3  5  1  0  0  0  0
  4  6  2  0  0  0  0
  4  7  1  0  0  0  0
  6  8  1  0  0  0  0
  7  9  2  0  0  0  0
  8 10  2  0  0  0  0
  9 10  1  0  0  0  0
M  END
> <PUBCHEM_COMPOUND_CID>
7705

> <PUBCHEM_COMPOUND_CANONICALIZED>
1

> <PUBCHEM_CACTVS_COMPLEXITY>
70.1

> <PUBCHEM_CACTVS_HBOND_ACCEPTOR>
0

> <PUBCHEM_CACTVS_HBOND_DONOR>
0

> <PUBCHEM_CACTVS_ROTATABLE_BOND>
3

> <PUBCHEM_CACTVS_SUBSKEYS>
AAADccBwAAAAAAAAAAAAAAAAAAAAAAAAAAAwAAAAAAAAAAABAAAAGAAAAAAADACAGAAyAIAAAACAAiBCAAACAAAgAAAIiAAAAIgIICKAERCAIAAggAAIiAcAgIAOAAAAAAAAAAAAAAAAAAAAAAAAAAAAAA==

> <PUBCHEM_IUPAC_OPENEYE_NAME>
butylbenzene

> <PUBCHEM_IUPAC_CAS_NAME>
butylbenzene

> <PUBCHEM_IUPAC_NAME>
butylbenzene

> <PUBCHEM_IUPAC_SYSTEMATIC_NAME>
butylbenzene

> <PUBCHEM_IUPAC_TRADITIONAL_NAME>
butylbenzene

> <PUBCHEM_IUPAC_INCHI>
InChI=1S/C10H14/c1-2-3-7-10-8-5-4-6-9-10/h4-6,8-9H,2-3,7H2,1H3

> <PUBCHEM_IUPAC_INCHIKEY>
OCKPCBLVNKHBMX-UHFFFAOYSA-N

> <PUBCHEM_XLOGP3>
4.4

> <PUBCHEM_EXACT_MASS>
134.11

> <PUBCHEM_MOLECULAR_FORMULA>
C10H14

> <PUBCHEM_MOLECULAR_WEIGHT>
134.222

> <PUBCHEM_OPENEYE_CAN_SMILES>
CCCCC1=CC=CC=C1

> <PUBCHEM_OPENEYE_ISO_SMILES>
CCCCC1=CC=CC=C1

> <PUBCHEM_CACTVS_TPSA>
0

> <PUBCHEM_MONOISOTOPIC_WEIGHT>
134.11

> <PUBCHEM_TOTAL_CHARGE>
0

> <PUBCHEM_HEAVY_ATOM_COUNT>
10

> <PUBCHEM_ATOM_DEF_STEREO_COUNT>
0

> <PUBCHEM_ATOM_UDEF_STEREO_COUNT>
0

> <PUBCHEM_BOND_DEF_STEREO_COUNT>
0

> <PUBCHEM_BOND_UDEF_STEREO_COUNT>
0

> <PUBCHEM_ISOTOPIC_ATOM_COUNT>
0

> <PUBCHEM_COMPONENT_COUNT>
1

> <PUBCHEM_CACTVS_TAUTO_COUNT>
-1

> <PUBCHEM_COORDINATE_TYPE>
1
5
255

> <PUBCHEM_BONDANNOTATIONS>
4  6  8
4  7  8
6  8  8
7  9  8
8  10  8
9  10  8

$$$$
4101
  -OEChem-02061913062D

 10 12  0     0  0  0  0  0  0999 V2000
    3.6730    1.1801    0.0000 N   0  0  0  0  0  0  0  0  0  0  0  0
    4.5092   -0.2682    0.0000 N   0  0  0  0  0  0  0  0  0  0  0  0
    2.8368   -0.2682    0.0000 N   0  0  0  0  0  0  0  0  0  0  0  0
    2.9819   -0.7033    0.0000 N   0  0  0  0  0  0  0  0  0  0  0  0
    4.5092    0.6973    0.0000 C   0  0  0  0  0  0  0  0  0  0  0  0
    3.8876   -1.1801    0.0000 C   0  0  0  0  0  0  0  0  0  0  0  0
    3.6730   -0.5710    0.0000 C   0  0  0  0  0  0  0  0  0  0  0  0
    2.0000   -0.7510    0.0000 C   0  0  0  0  0  0  0  0  0  0  0  0
    2.8368    0.6973    0.0000 C   0  0  0  0  0  0  0  0  0  0  0  0
    2.9819    0.3420    0.0000 C   0  0  0  0  0  0  0  0  0  0  0  0
  1  5  1  0  0  0  0
  1  9  1  0  0  0  0
  1 10  1  0  0  0  0
  2  5  1  0  0  0  0
  2  6  1  0  0  0  0
  2  7  1  0  0  0  0
  3  7  1  0  0  0  0
  3  8  1  0  0  0  0
  3  9  1  0  0  0  0
  4  6  1  0  0  0  0
  4  8  1  0  0  0  0
  4 10  1  0  0  0  0
M  END
> <PUBCHEM_COMPOUND_CID>
4101

> <PUBCHEM_COMPOUND_CANONICALIZED>
1

> <PUBCHEM_CACTVS_COMPLEXITY>
84.8

> <PUBCHEM_CACTVS_HBOND_ACCEPTOR>
4

> <PUBCHEM_CACTVS_HBOND_DONOR>
0

> <PUBCHEM_CACTVS_ROTATABLE_BOND>
0

> <PUBCHEM_CACTVS_SUBSKEYS>
AAADccBjgAAAAAAAAAAAAAAAAAAAAAAAAAAsWLFgAAAAAAAAAAAAFAAAAAAAAAAAAAQBAAMAAAAAAAAAAAAAAAAAAAAAAAAIAACAAAAAAAAAAAAIAAAAAAAAAAAAAAAAAAAAAAAAAAAAAAAAAAAAAAAAAA==

> <PUBCHEM_IUPAC_OPENEYE_NAME>
1,3,5,7-tetrazatricyclo[3.3.1.1^{3,7}]decane

> <PUBCHEM_IUPAC_CAS_NAME>
1,3,5,7-tetrazatricyclo[3.3.1.1^{3,7}]decane

> <PUBCHEM_IUPAC_NAME>
1,3,5,7-tetrazatricyclo[3.3.1.1^{3,7}]decane

> <PUBCHEM_IUPAC_SYSTEMATIC_NAME>
1,3,5,7-tetrazatricyclo[3.3.1.1^{3,7}]decane

> <PUBCHEM_IUPAC_TRADITIONAL_NAME>
1,3,5,7-tetrazatricyclo[3.3.1.1^{3,7}]decane

> <PUBCHEM_IUPAC_INCHI>
InChI=1S/C6H12N4/c1-7-2-9-4-8(1)5-10(3-7)6-9/h1-6H2

> <PUBCHEM_IUPAC_INCHIKEY>
VKYKSIONXSXAKP-UHFFFAOYSA-N

> <PUBCHEM_XLOGP3_AA>
0.3

> <PUBCHEM_EXACT_MASS>
140.106

> <PUBCHEM_MOLECULAR_FORMULA>
C6H12N4

> <PUBCHEM_MOLECULAR_WEIGHT>
140.19

> <PUBCHEM_OPENEYE_CAN_SMILES>
C1N2CN3CN1CN(C2)C3

> <PUBCHEM_OPENEYE_ISO_SMILES>
C1N2CN3CN1CN(C2)C3

> <PUBCHEM_CACTVS_TPSA>
13

> <PUBCHEM_MONOISOTOPIC_WEIGHT>
140.106

> <PUBCHEM_TOTAL_CHARGE>
0

> <PUBCHEM_HEAVY_ATOM_COUNT>
10

> <PUBCHEM_ATOM_DEF_STEREO_COUNT>
0

> <PUBCHEM_ATOM_UDEF_STEREO_COUNT>
0

> <PUBCHEM_BOND_DEF_STEREO_COUNT>
0

> <PUBCHEM_BOND_UDEF_STEREO_COUNT>
0

> <PUBCHEM_ISOTOPIC_ATOM_COUNT>
0

> <PUBCHEM_COMPONENT_COUNT>
1

> <PUBCHEM_CACTVS_TAUTO_COUNT>
-1

> <PUBCHEM_COORDINATE_TYPE>
1
5
255

$$$$
7967
  -OEChem-02061913072D

  7  7  0     0  0  0  0  0  0999 V2000
    2.8660    1.5000    0.0000 O   0  0  0  0  0  0  0  0  0  0  0  0
    2.8660   -1.5000    0.0000 C   0  0  0  0  0  0  0  0  0  0  0  0
    3.7320   -1.0000    0.0000 C   0  0  0  0  0  0  0  0  0  0  0  0
    2.0000   -1.0000    0.0000 C   0  0  0  0  0  0  0  0  0  0  0  0
    3.7320   -0.0000    0.0000 C   0  0  0  0  0  0  0  0  0  0  0  0
    2.0000    0.0000    0.0000 C   0  0  0  0  0  0  0  0  0  0  0  0
    2.8660    0.5000    0.0000 C   0  0  0  0  0  0  0  0  0  0  0  0
  1  7  2  0  0  0  0
  2  3  1  0  0  0  0
  2  4  1  0  0  0  0
  3  5  1  0  0  0  0
  4  6  1  0  0  0  0
  5  7  1  0  0  0  0
  6  7  1  0  0  0  0
M  END
> <PUBCHEM_COMPOUND_CID>
7967

> <PUBCHEM_COMPOUND_CANONICALIZED>
1

> <PUBCHEM_CACTVS_COMPLEXITY>
68.2

> <PUBCHEM_CACTVS_HBOND_ACCEPTOR>
1

> <PUBCHEM_CACTVS_HBOND_DONOR>
0

> <PUBCHEM_CACTVS_ROTATABLE_BOND>
0

> <PUBCHEM_CACTVS_SUBSKEYS>
AAADccBgIAAAAAAAAAAAAAAAAAAAAAAAAAAwAAAAAAAAAAAAAAAAGgAAAAAACASAgAAAAAAAAAAIAIAQAAAAAAAAAAAAAAEAAAAAABIAAAAAAAAAAAAAAAEICAAAAAAAAAAAAAAAAAAAAAAAAAAAAAAAAA==

> <PUBCHEM_IUPAC_OPENEYE_NAME>
cyclohexanone

> <PUBCHEM_IUPAC_CAS_NAME>
cyclohexanone

> <PUBCHEM_IUPAC_NAME>
cyclohexanone

> <PUBCHEM_IUPAC_SYSTEMATIC_NAME>
cyclohexanone

> <PUBCHEM_IUPAC_TRADITIONAL_NAME>
cyclohexanone

> <PUBCHEM_IUPAC_INCHI>
InChI=1S/C6H10O/c7-6-4-2-1-3-5-6/h1-5H2

> <PUBCHEM_IUPAC_INCHIKEY>
JHIVVAPYMSGYDF-UHFFFAOYSA-N

> <PUBCHEM_XLOGP3>
0.8

> <PUBCHEM_EXACT_MASS>
98.073

> <PUBCHEM_MOLECULAR_FORMULA>
C6H10O

> <PUBCHEM_MOLECULAR_WEIGHT>
98.145

> <PUBCHEM_OPENEYE_CAN_SMILES>
C1CCC(=O)CC1

> <PUBCHEM_OPENEYE_ISO_SMILES>
C1CCC(=O)CC1

> <PUBCHEM_CACTVS_TPSA>
17.1

> <PUBCHEM_MONOISOTOPIC_WEIGHT>
98.073

> <PUBCHEM_TOTAL_CHARGE>
0

> <PUBCHEM_HEAVY_ATOM_COUNT>
7

> <PUBCHEM_ATOM_DEF_STEREO_COUNT>
0

> <PUBCHEM_ATOM_UDEF_STEREO_COUNT>
0

> <PUBCHEM_BOND_DEF_STEREO_COUNT>
0

> <PUBCHEM_BOND_UDEF_STEREO_COUNT>
0

> <PUBCHEM_ISOTOPIC_ATOM_COUNT>
0

> <PUBCHEM_COMPONENT_COUNT>
1

> <PUBCHEM_CACTVS_TAUTO_COUNT>
-1

> <PUBCHEM_COORDINATE_TYPE>
1
5
255

$$$$
12161
  -OEChem-02061913072D

  9  9  0     0  0  0  0  0  0999 V2000
    2.8660   -1.2500    0.0000 C   0  0  0  0  0  0  0  0  0  0  0  0
    2.8660    0.7500    0.0000 C   0  0  0  0  0  0  0  0  0  0  0  0
    2.0000   -0.7500    0.0000 C   0  0  0  0  0  0  0  0  0  0  0  0
    3.7320   -0.7500    0.0000 C   0  0  0  0  0  0  0  0  0  0  0  0
    2.0000    0.2500    0.0000 C   0  0  0  0  0  0  0  0  0  0  0  0
    3.7320    0.2500    0.0000 C   0  0  0  0  0  0  0  0  0  0  0  0
    2.8660   -2.2500    0.0000 C   0  0  0  0  0  0  0  0  0  0  0  0
    2.8660    1.7500    0.0000 C   0  0  0  0  0  0  0  0  0  0  0  0
    3.7320    2.2500    0.0000 C   0  0  0  0  0  0  0  0  0  0  0  0
  1  3  2  0  0  0  0
  1  4  1  0  0  0  0
  1  7  1  0  0  0  0
  2  5  2  0  0  0  0
  2  6  1  0  0  0  0
  2  8  1  0  0  0  0
  3  5  1  0  0  0  0
  4  6  2  0  0  0  0
  8  9  2  0  0  0  0
M  END
> <PUBCHEM_COMPOUND_CID>
12161

> <PUBCHEM_COMPOUND_CANONICALIZED>
1

> <PUBCHEM_CACTVS_COMPLEXITY>
86.2

> <PUBCHEM_CACTVS_HBOND_ACCEPTOR>
0

> <PUBCHEM_CACTVS_HBOND_DONOR>
0

> <PUBCHEM_CACTVS_ROTATABLE_BOND>
1

> <PUBCHEM_CACTVS_SUBSKEYS>
AAADccBwAAAAAAAAAAAAAAAAAAAAAAAAAAAwAAAAAAAAAAABAAAAGAAAAAAADACAGAAyAIAAAACAAiBCAAACAAAgAAAIiAAAAIgIICKAERCAIAAggAAIiAcAgAAOQAAAAAAAAACAAAAAAAAAAAAAAAAAAA==

> <PUBCHEM_IUPAC_OPENEYE_NAME>
1-methyl-4-vinyl-benzene

> <PUBCHEM_IUPAC_CAS_NAME>
1-ethenyl-4-methylbenzene

> <PUBCHEM_IUPAC_NAME>
1-ethenyl-4-methylbenzene

> <PUBCHEM_IUPAC_SYSTEMATIC_NAME>
1-ethenyl-4-methyl-benzene

> <PUBCHEM_IUPAC_TRADITIONAL_NAME>
1-methyl-4-vinyl-benzene

> <PUBCHEM_IUPAC_INCHI>
InChI=1S/C9H10/c1-3-9-6-4-8(2)5-7-9/h3-7H,1H2,2H3

> <PUBCHEM_IUPAC_INCHIKEY>
JLBJTVDPSNHSKJ-UHFFFAOYSA-N

> <PUBCHEM_XLOGP3>
3.6

> <PUBCHEM_EXACT_MASS>
118.078

> <PUBCHEM_MOLECULAR_FORMULA>
C9H10

> <PUBCHEM_MOLECULAR_WEIGHT>
118.179

> <PUBCHEM_OPENEYE_CAN_SMILES>
CC1=CC=C(C=C1)C=C

> <PUBCHEM_OPENEYE_ISO_SMILES>
CC1=CC=C(C=C1)C=C

> <PUBCHEM_CACTVS_TPSA>
0

> <PUBCHEM_MONOISOTOPIC_WEIGHT>
118.078

> <PUBCHEM_TOTAL_CHARGE>
0

> <PUBCHEM_HEAVY_ATOM_COUNT>
9

> <PUBCHEM_ATOM_DEF_STEREO_COUNT>
0

> <PUBCHEM_ATOM_UDEF_STEREO_COUNT>
0

> <PUBCHEM_BOND_DEF_STEREO_COUNT>
0

> <PUBCHEM_BOND_UDEF_STEREO_COUNT>
0

> <PUBCHEM_ISOTOPIC_ATOM_COUNT>
0

> <PUBCHEM_COMPONENT_COUNT>
1

> <PUBCHEM_CACTVS_TAUTO_COUNT>
-1

> <PUBCHEM_COORDINATE_TYPE>
1
5
255

> <PUBCHEM_BONDANNOTATIONS>
1  3  8
1  4  8
2  5  8
2  6  8
3  5  8
4  6  8

$$$$
1049
  -OEChem-02061913062D

  6  6  0     0  0  0  0  0  0999 V2000
    2.8660   -1.0000    0.0000 N   0  0  0  0  0  0  0  0  0  0  0  0
    2.8660    1.0000    0.0000 C   0  0  0  0  0  0  0  0  0  0  0  0
    2.0000    0.5000    0.0000 C   0  0  0  0  0  0  0  0  0  0  0  0
    3.7320    0.5000    0.0000 C   0  0  0  0  0  0  0  0  0  0  0  0
    2.0000   -0.5000    0.0000 C   0  0  0  0  0  0  0  0  0  0  0  0
    3.7320   -0.5000    0.0000 C   0  0  0  0  0  0  0  0  0  0  0  0
  1  5  2  0  0  0  0
  1  6  1  0  0  0  0
  2  3  2  0  0  0  0
  2  4  1  0  0  0  0
  3  5  1  0  0  0  0
  4  6  2  0  0  0  0
M  END
> <PUBCHEM_COMPOUND_CID>
1049

> <PUBCHEM_COMPOUND_CANONICALIZED>
1

> <PUBCHEM_CACTVS_COMPLEXITY>
30.9

> <PUBCHEM_CACTVS_HBOND_ACCEPTOR>
1

> <PUBCHEM_CACTVS_HBOND_DONOR>
0

> <PUBCHEM_CACTVS_ROTATABLE_BOND>
0

> <PUBCHEM_CACTVS_SUBSKEYS>
AAADcYBiAAAAAAAAAAAAAAAAAAAAAAAAAAAsAAAAAAAAAAABgAAAHAAAAAAACADBEgQ8gJIIEACgADBnRACCgCAxAiAI2CA4ZJgIIOLAkZGEIAhggADIyAYQAAAAAAAAAAAAAAAAAAAAAAAAAAAAAAAAAA==

> <PUBCHEM_IUPAC_OPENEYE_NAME>
pyridine

> <PUBCHEM_IUPAC_CAS_NAME>
pyridine

> <PUBCHEM_IUPAC_NAME>
pyridine

> <PUBCHEM_IUPAC_SYSTEMATIC_NAME>
pyridine

> <PUBCHEM_IUPAC_TRADITIONAL_NAME>
pyridine

> <PUBCHEM_IUPAC_INCHI>
InChI=1S/C5H5N/c1-2-4-6-5-3-1/h1-5H

> <PUBCHEM_IUPAC_INCHIKEY>
JUJWROOIHBZHMG-UHFFFAOYSA-N

> <PUBCHEM_XLOGP3>
0.7

> <PUBCHEM_EXACT_MASS>
79.042

> <PUBCHEM_MOLECULAR_FORMULA>
C5H5N

> <PUBCHEM_MOLECULAR_WEIGHT>
79.102

> <PUBCHEM_OPENEYE_CAN_SMILES>
C1=CC=NC=C1

> <PUBCHEM_OPENEYE_ISO_SMILES>
C1=CC=NC=C1

> <PUBCHEM_CACTVS_TPSA>
12.9

> <PUBCHEM_MONOISOTOPIC_WEIGHT>
79.042

> <PUBCHEM_TOTAL_CHARGE>
0

> <PUBCHEM_HEAVY_ATOM_COUNT>
6

> <PUBCHEM_ATOM_DEF_STEREO_COUNT>
0

> <PUBCHEM_ATOM_UDEF_STEREO_COUNT>
0

> <PUBCHEM_BOND_DEF_STEREO_COUNT>
0

> <PUBCHEM_BOND_UDEF_STEREO_COUNT>
0

> <PUBCHEM_ISOTOPIC_ATOM_COUNT>
0

> <PUBCHEM_COMPONENT_COUNT>
1

> <PUBCHEM_CACTVS_TAUTO_COUNT>
-1

> <PUBCHEM_COORDINATE_TYPE>
1
5
255

> <PUBCHEM_BONDANNOTATIONS>
1  5  8
1  6  8
2  3  8
2  4  8
3  5  8
4  6  8

$$$$
7966
  -OEChem-02061913072D

  7  7  0     0  0  0  0  0  0999 V2000
    2.8660    1.3450    0.0000 O   0  0  0  0  0  0  0  0  0  0  0  0
    2.8660    0.3450    0.0000 C   0  0  0  0  0  0  0  0  0  0  0  0
    2.0000   -0.1550    0.0000 C   0  0  0  0  0  0  0  0  0  0  0  0
    3.7320   -0.1550    0.0000 C   0  0  0  0  0  0  0  0  0  0  0  0
    2.0000   -1.1550    0.0000 C   0  0  0  0  0  0  0  0  0  0  0  0
    3.7320   -1.1550    0.0000 C   0  0  0  0  0  0  0  0  0  0  0  0
    2.8660   -1.6550    0.0000 C   0  0  0  0  0  0  0  0  0  0  0  0
  1  2  1  0  0  0  0
  2  3  1  0  0  0  0
  2  4  1  0  0  0  0
  3  5  1  0  0  0  0
  4  6  1  0  0  0  0
  5  7  1  0  0  0  0
  6  7  1  0  0  0  0
M  END
> <PUBCHEM_COMPOUND_CID>
7966

> <PUBCHEM_COMPOUND_CANONICALIZED>
1

> <PUBCHEM_CACTVS_COMPLEXITY>
46.1

> <PUBCHEM_CACTVS_HBOND_ACCEPTOR>
1

> <PUBCHEM_CACTVS_HBOND_DONOR>
1

> <PUBCHEM_CACTVS_ROTATABLE_BOND>
0

> <PUBCHEM_CACTVS_SUBSKEYS>
AAADccBgIAAAAAAAAAAAAAAAAAAAAAAAAAAwAAAAAAAAAAAAAAAAGgAACAAACBSggAIAAAAAAgAAAAAAAAAAAAAAAAAAAAAAAAAAEAIAAAAAQAAEAAAAAAGAQAAAAAAAAAAAAAAAAAAAAAAAAAAAAAAAAA==

> <PUBCHEM_IUPAC_OPENEYE_NAME>
cyclohexanol

> <PUBCHEM_IUPAC_CAS_NAME>
cyclohexanol

> <PUBCHEM_IUPAC_NAME>
cyclohexanol

> <PUBCHEM_IUPAC_SYSTEMATIC_NAME>
cyclohexanol

> <PUBCHEM_IUPAC_TRADITIONAL_NAME>
cyclohexanol

> <PUBCHEM_IUPAC_INCHI>
InChI=1S/C6H12O/c7-6-4-2-1-3-5-6/h6-7H,1-5H2

> <PUBCHEM_IUPAC_INCHIKEY>
HPXRVTGHNJAIIH-UHFFFAOYSA-N

> <PUBCHEM_XLOGP3>
1.2

> <PUBCHEM_EXACT_MASS>
100.089

> <PUBCHEM_MOLECULAR_FORMULA>
C6H12O

> <PUBCHEM_MOLECULAR_WEIGHT>
100.161

> <PUBCHEM_OPENEYE_CAN_SMILES>
C1CCC(CC1)O

> <PUBCHEM_OPENEYE_ISO_SMILES>
C1CCC(CC1)O

> <PUBCHEM_CACTVS_TPSA>
20.2

> <PUBCHEM_MONOISOTOPIC_WEIGHT>
100.089

> <PUBCHEM_TOTAL_CHARGE>
0

> <PUBCHEM_HEAVY_ATOM_COUNT>
7

> <PUBCHEM_ATOM_DEF_STEREO_COUNT>
0

> <PUBCHEM_ATOM_UDEF_STEREO_COUNT>
0

> <PUBCHEM_BOND_DEF_STEREO_COUNT>
0

> <PUBCHEM_BOND_UDEF_STEREO_COUNT>
0

> <PUBCHEM_ISOTOPIC_ATOM_COUNT>
0

> <PUBCHEM_COMPONENT_COUNT>
1

> <PUBCHEM_CACTVS_TAUTO_COUNT>
-1

> <PUBCHEM_COORDINATE_TYPE>
1
5
255

$$$$
240
  -OEChem-02061913062D

  8  8  0     0  0  0  0  0  0999 V2000
    3.7320    1.7500    0.0000 O   0  0  0  0  0  0  0  0  0  0  0  0
    2.8660    0.2500    0.0000 C   0  0  0  0  0  0  0  0  0  0  0  0
    2.0000   -0.2500    0.0000 C   0  0  0  0  0  0  0  0  0  0  0  0
    3.7320   -0.2500    0.0000 C   0  0  0  0  0  0  0  0  0  0  0  0
    2.0000   -1.2500    0.0000 C   0  0  0  0  0  0  0  0  0  0  0  0
    3.7320   -1.2500    0.0000 C   0  0  0  0  0  0  0  0  0  0  0  0
    2.8660   -1.7500    0.0000 C   0  0  0  0  0  0  0  0  0  0  0  0
    2.8660    1.2500    0.0000 C   0  0  0  0  0  0  0  0  0  0  0  0
  1  8  2  0  0  0  0
  2  3  2  0  0  0  0
  2  4  1  0  0  0  0
  2  8  1  0  0  0  0
  3  5  1  0  0  0  0
  4  6  2  0  0  0  0
  5  7  2  0  0  0  0
  6  7  1  0  0  0  0
M  END
> <PUBCHEM_COMPOUND_CID>
240

> <PUBCHEM_COMPOUND_CANONICALIZED>
1

> <PUBCHEM_CACTVS_COMPLEXITY>
72.5

> <PUBCHEM_CACTVS_HBOND_ACCEPTOR>
1

> <PUBCHEM_CACTVS_HBOND_DONOR>
0

> <PUBCHEM_CACTVS_ROTATABLE_BOND>
1

> <PUBCHEM_CACTVS_SUBSKEYS>
AAADcYBgIAAAAAAAAAAAAAAAAAAAAAAAAAAwAAAAAAAAAAABAAAAGgAAAAAADACgmAIwAIAAAACIAihSgAACAAAkAAAIiAEAAMgIIDKAFRCAIQAggAAIiYcIiACOAAAAAAAAAAAAAAAAAAAAAAAAAAAAAA==

> <PUBCHEM_IUPAC_OPENEYE_NAME>
benzaldehyde

> <PUBCHEM_IUPAC_CAS_NAME>
benzaldehyde

> <PUBCHEM_IUPAC_NAME>
benzaldehyde

> <PUBCHEM_IUPAC_SYSTEMATIC_NAME>
benzaldehyde

> <PUBCHEM_IUPAC_TRADITIONAL_NAME>
benzaldehyde

> <PUBCHEM_IUPAC_INCHI>
InChI=1S/C7H6O/c8-6-7-4-2-1-3-5-7/h1-6H

> <PUBCHEM_IUPAC_INCHIKEY>
HUMNYLRZRPPJDN-UHFFFAOYSA-N

> <PUBCHEM_XLOGP3>
1.5

> <PUBCHEM_EXACT_MASS>
106.042

> <PUBCHEM_MOLECULAR_FORMULA>
C7H6O

> <PUBCHEM_MOLECULAR_WEIGHT>
106.124

> <PUBCHEM_OPENEYE_CAN_SMILES>
C1=CC=C(C=C1)C=O

> <PUBCHEM_OPENEYE_ISO_SMILES>
C1=CC=C(C=C1)C=O

> <PUBCHEM_CACTVS_TPSA>
17.1

> <PUBCHEM_MONOISOTOPIC_WEIGHT>
106.042

> <PUBCHEM_TOTAL_CHARGE>
0

> <PUBCHEM_HEAVY_ATOM_COUNT>
8

> <PUBCHEM_ATOM_DEF_STEREO_COUNT>
0

> <PUBCHEM_ATOM_UDEF_STEREO_COUNT>
0

> <PUBCHEM_BOND_DEF_STEREO_COUNT>
0

> <PUBCHEM_BOND_UDEF_STEREO_COUNT>
0

> <PUBCHEM_ISOTOPIC_ATOM_COUNT>
0

> <PUBCHEM_COMPONENT_COUNT>
1

> <PUBCHEM_CACTVS_TAUTO_COUNT>
-1

> <PUBCHEM_COORDINATE_TYPE>
1
5
255

> <PUBCHEM_BONDANNOTATIONS>
2  3  8
2  4  8
3  5  8
4  6  8
5  7  8
6  7  8

$$$$
7768
  -OEChem-02061913072D

  8  8  0     0  0  0  0  0  0999 V2000
    2.0000   -0.9749    0.0000 O   0  0  0  0  0  0  0  0  0  0  0  0
    3.6828   -0.7853    0.0000 N   0  0  0  0  0  0  0  0  0  0  0  0
    4.1828    1.4053    0.0000 C   0  0  0  0  0  0  0  0  0  0  0  0
    4.8063    0.6235    0.0000 C   0  0  0  0  0  0  0  0  0  0  0  0
    3.1828    1.4053    0.0000 C   0  0  0  0  0  0  0  0  0  0  0  0
    4.5838   -0.3514    0.0000 C   0  0  0  0  0  0  0  0  0  0  0  0
    2.5593    0.6235    0.0000 C   0  0  0  0  0  0  0  0  0  0  0  0
    2.7818   -0.3514    0.0000 C   0  0  0  0  0  0  0  0  0  0  0  0
  1  8  2  0  0  0  0
  2  6  1  0  0  0  0
  2  8  1  0  0  0  0
  3  4  1  0  0  0  0
  3  5  1  0  0  0  0
  4  6  1  0  0  0  0
  5  7  1  0  0  0  0
  7  8  1  0  0  0  0
M  END
> <PUBCHEM_COMPOUND_CID>
7768

> <PUBCHEM_COMPOUND_CANONICALIZED>
1

> <PUBCHEM_CACTVS_COMPLEXITY>
90.5

> <PUBCHEM_CACTVS_HBOND_ACCEPTOR>
1

> <PUBCHEM_CACTVS_HBOND_DONOR>
1

> <PUBCHEM_CACTVS_ROTATABLE_BOND>
0

> <PUBCHEM_CACTVS_SUBSKEYS>
AAADccBiIAAAAAAAAAAAAAAAAAAAAAAAAAAAAAAABYAAAAAAAAAAHgAQAAAACADBgAQAAALAAAAIAAEQEAAAAAAAAAAAAIEIAAAAABIAgAAEAAAAFgCAAAEYCAAAAAAAAAAAAAAAAAAAAAAAAAAAAAAAAA==

> <PUBCHEM_IUPAC_OPENEYE_NAME>
azepan-2-one

> <PUBCHEM_IUPAC_CAS_NAME>
2-azepanone

> <PUBCHEM_IUPAC_NAME>
azepan-2-one

> <PUBCHEM_IUPAC_SYSTEMATIC_NAME>
azepan-2-one

> <PUBCHEM_IUPAC_TRADITIONAL_NAME>
azepan-2-one

> <PUBCHEM_IUPAC_INCHI>
InChI=1S/C6H11NO/c8-6-4-2-1-3-5-7-6/h1-5H2,(H,7,8)

> <PUBCHEM_IUPAC_INCHIKEY>
JBKVHLHDHHXQEQ-UHFFFAOYSA-N

> <PUBCHEM_XLOGP3>
-0.1

> <PUBCHEM_EXACT_MASS>
113.084

> <PUBCHEM_MOLECULAR_FORMULA>
C6H11NO

> <PUBCHEM_MOLECULAR_WEIGHT>
113.16

> <PUBCHEM_OPENEYE_CAN_SMILES>
C1CCC(=O)NCC1

> <PUBCHEM_OPENEYE_ISO_SMILES>
C1CCC(=O)NCC1

> <PUBCHEM_CACTVS_TPSA>
29.1

> <PUBCHEM_MONOISOTOPIC_WEIGHT>
113.084

> <PUBCHEM_TOTAL_CHARGE>
0

> <PUBCHEM_HEAVY_ATOM_COUNT>
8

> <PUBCHEM_ATOM_DEF_STEREO_COUNT>
0

> <PUBCHEM_ATOM_UDEF_STEREO_COUNT>
0

> <PUBCHEM_BOND_DEF_STEREO_COUNT>
0

> <PUBCHEM_BOND_UDEF_STEREO_COUNT>
0

> <PUBCHEM_ISOTOPIC_ATOM_COUNT>
0

> <PUBCHEM_COMPONENT_COUNT>
1

> <PUBCHEM_CACTVS_TAUTO_COUNT>
-1

> <PUBCHEM_COORDINATE_TYPE>
1
5
255

$$$$
243
  -OEChem-02061913062D

  9  9  0     0  0  0  0  0  0999 V2000
    3.7320    1.4400    0.0000 O   0  0  0  0  0  0  0  0  0  0  0  0
    2.0000    1.4400    0.0000 O   0  0  0  0  0  0  0  0  0  0  0  0
    2.8660   -0.0600    0.0000 C   0  0  0  0  0  0  0  0  0  0  0  0
    2.0000   -0.5600    0.0000 C   0  0  0  0  0  0  0  0  0  0  0  0
    3.7320   -0.5600    0.0000 C   0  0  0  0  0  0  0  0  0  0  0  0
    2.0000   -1.5600    0.0000 C   0  0  0  0  0  0  0  0  0  0  0  0
    3.7320   -1.5600    0.0000 C   0  0  0  0  0  0  0  0  0  0  0  0
    2.8660   -2.0600    0.0000 C   0  0  0  0  0  0  0  0  0  0  0  0
    2.8660    0.9400    0.0000 C   0  0  0  0  0  0  0  0  0  0  0  0
  1  9  1  0  0  0  0
  2  9  2  0  0  0  0
  3  4  2  0  0  0  0
  3  5  1  0  0  0  0
  3  9  1  0  0  0  0
  4  6  1  0  0  0  0
  5  7  2  0  0  0  0
  6  8  2  0  0  0  0
  7  8  1  0  0  0  0
M  END
> <PUBCHEM_COMPOUND_CID>
243

> <PUBCHEM_COMPOUND_CANONICALIZED>
1

> <PUBCHEM_CACTVS_COMPLEXITY>
104

> <PUBCHEM_CACTVS_HBOND_ACCEPTOR>
2

> <PUBCHEM_CACTVS_HBOND_DONOR>
1

> <PUBCHEM_CACTVS_ROTATABLE_BOND>
1

> <PUBCHEM_CACTVS_SUBSKEYS>
AAADcYBgMAAAAAAAAAAAAAAAAAAAAAAAAAAwAAAAAAAAAAABAAAAGgAACAAADACAmAAwCIAAAgCIAiDSCAACAAAkAAAIiAEACMgIJjKAFRCAcQAkwAEImYeIyCCOAAAAAAAAAAAAAAAAAAAAAAAAAAAAAA==

> <PUBCHEM_IUPAC_OPENEYE_NAME>
benzoic acid

> <PUBCHEM_IUPAC_CAS_NAME>
benzoic acid

> <PUBCHEM_IUPAC_NAME>
benzoic acid

> <PUBCHEM_IUPAC_SYSTEMATIC_NAME>
benzoic acid

> <PUBCHEM_IUPAC_TRADITIONAL_NAME>
benzoic acid

> <PUBCHEM_IUPAC_INCHI>
InChI=1S/C7H6O2/c8-7(9)6-4-2-1-3-5-6/h1-5H,(H,8,9)

> <PUBCHEM_IUPAC_INCHIKEY>
WPYMKLBDIGXBTP-UHFFFAOYSA-N

> <PUBCHEM_XLOGP3>
1.9

> <PUBCHEM_EXACT_MASS>
122.037

> <PUBCHEM_MOLECULAR_FORMULA>
C7H6O2

> <PUBCHEM_MOLECULAR_WEIGHT>
122.123

> <PUBCHEM_OPENEYE_CAN_SMILES>
C1=CC=C(C=C1)C(=O)O

> <PUBCHEM_OPENEYE_ISO_SMILES>
C1=CC=C(C=C1)C(=O)O

> <PUBCHEM_CACTVS_TPSA>
37.3

> <PUBCHEM_MONOISOTOPIC_WEIGHT>
122.037

> <PUBCHEM_TOTAL_CHARGE>
0

> <PUBCHEM_HEAVY_ATOM_COUNT>
9

> <PUBCHEM_ATOM_DEF_STEREO_COUNT>
0

> <PUBCHEM_ATOM_UDEF_STEREO_COUNT>
0

> <PUBCHEM_BOND_DEF_STEREO_COUNT>
0

> <PUBCHEM_BOND_UDEF_STEREO_COUNT>
0

> <PUBCHEM_ISOTOPIC_ATOM_COUNT>
0

> <PUBCHEM_COMPONENT_COUNT>
1

> <PUBCHEM_CACTVS_TAUTO_COUNT>
-1

> <PUBCHEM_COORDINATE_TYPE>
1
5
255

> <PUBCHEM_BONDANNOTATIONS>
3  4  8
3  5  8
4  6  8
5  7  8
6  8  8
7  8  8

$$$$
7410
  -OEChem-02061913072D

  9  9  0     0  0  0  0  0  0999 V2000
    2.0000    1.7500    0.0000 O   0  0  0  0  0  0  0  0  0  0  0  0
    2.8660    0.2500    0.0000 C   0  0  0  0  0  0  0  0  0  0  0  0
    2.0000   -0.2500    0.0000 C   0  0  0  0  0  0  0  0  0  0  0  0
    3.7320   -0.2500    0.0000 C   0  0  0  0  0  0  0  0  0  0  0  0
    2.8660    1.2500    0.0000 C   0  0  0  0  0  0  0  0  0  0  0  0
    2.0000   -1.2500    0.0000 C   0  0  0  0  0  0  0  0  0  0  0  0
    3.7320   -1.2500    0.0000 C   0  0  0  0  0  0  0  0  0  0  0  0
    2.8660   -1.7500    0.0000 C   0  0  0  0  0  0  0  0  0  0  0  0
    3.7320    1.7500    0.0000 C   0  0  0  0  0  0  0  0  0  0  0  0
  1  5  2  0  0  0  0
  2  3  2  0  0  0  0
  2  4  1  0  0  0  0
  2  5  1  0  0  0  0
  3  6  1  0  0  0  0
  4  7  2  0  0  0  0
  5  9  1  0  0  0  0
  6  8  2  0  0  0  0
  7  8  1  0  0  0  0
M  END
> <PUBCHEM_COMPOUND_CID>
7410

> <PUBCHEM_COMPOUND_CANONICALIZED>
1

> <PUBCHEM_CACTVS_COMPLEXITY>
101

> <PUBCHEM_CACTVS_HBOND_ACCEPTOR>
1

> <PUBCHEM_CACTVS_HBOND_DONOR>
0

> <PUBCHEM_CACTVS_ROTATABLE_BOND>
1

> <PUBCHEM_CACTVS_SUBSKEYS>
AAADccBwIAAAAAAAAAAAAAAAAAAAAAAAAAAwAAAAAAAAAAABAAAAGgAAAAAADASAmAAyAIAAAACIAqBSAAACAAAkAAAIiAEAAMgIIDKAFRCAIQAggAAIiYcIiICOAAAAAAAAAAAAAAAAAAAAAAAAAAAAAA==

> <PUBCHEM_IUPAC_OPENEYE_NAME>
1-phenylethanone

> <PUBCHEM_IUPAC_CAS_NAME>
1-phenylethanone

> <PUBCHEM_IUPAC_NAME>
1-phenylethanone

> <PUBCHEM_IUPAC_SYSTEMATIC_NAME>
1-phenylethanone

> <PUBCHEM_IUPAC_TRADITIONAL_NAME>
acetophenone

> <PUBCHEM_IUPAC_INCHI>
InChI=1S/C8H8O/c1-7(9)8-5-3-2-4-6-8/h2-6H,1H3

> <PUBCHEM_IUPAC_INCHIKEY>
KWOLFJPFCHCOCG-UHFFFAOYSA-N

> <PUBCHEM_XLOGP3>
1.6

> <PUBCHEM_EXACT_MASS>
120.058

> <PUBCHEM_MOLECULAR_FORMULA>
C8H8O

> <PUBCHEM_MOLECULAR_WEIGHT>
120.151

> <PUBCHEM_OPENEYE_CAN_SMILES>
CC(=O)C1=CC=CC=C1

> <PUBCHEM_OPENEYE_ISO_SMILES>
CC(=O)C1=CC=CC=C1

> <PUBCHEM_CACTVS_TPSA>
17.1

> <PUBCHEM_MONOISOTOPIC_WEIGHT>
120.058

> <PUBCHEM_TOTAL_CHARGE>
0

> <PUBCHEM_HEAVY_ATOM_COUNT>
9

> <PUBCHEM_ATOM_DEF_STEREO_COUNT>
0

> <PUBCHEM_ATOM_UDEF_STEREO_COUNT>
0

> <PUBCHEM_BOND_DEF_STEREO_COUNT>
0

> <PUBCHEM_BOND_UDEF_STEREO_COUNT>
0

> <PUBCHEM_ISOTOPIC_ATOM_COUNT>
0

> <PUBCHEM_COMPONENT_COUNT>
1

> <PUBCHEM_CACTVS_TAUTO_COUNT>
-1

> <PUBCHEM_COORDINATE_TYPE>
1
5
255

> <PUBCHEM_BONDANNOTATIONS>
2  3  8
2  4  8
3  6  8
4  7  8
6  8  8
7  8  8

$$$$
7005
  -OEChem-02061913072D

 11 12  0     0  0  0  0  0  0999 V2000
    2.8660   -1.3623    0.0000 O   0  0  0  0  0  0  0  0  0  0  0  0
    3.7320    0.1377    0.0000 C   0  0  0  0  0  0  0  0  0  0  0  0
    3.7320    1.1377    0.0000 C   0  0  0  0  0  0  0  0  0  0  0  0
    2.8660   -0.3623    0.0000 C   0  0  0  0  0  0  0  0  0  0  0  0
    2.8660    1.6377    0.0000 C   0  0  0  0  0  0  0  0  0  0  0  0
    4.6260   -0.3970    0.0000 C   0  0  0  0  0  0  0  0  0  0  0  0
    4.6260    1.6723    0.0000 C   0  0  0  0  0  0  0  0  0  0  0  0
    2.0000    0.1377    0.0000 C   0  0  0  0  0  0  0  0  0  0  0  0
    2.0000    1.1377    0.0000 C   0  0  0  0  0  0  0  0  0  0  0  0
    5.5321    0.1169    0.0000 C   0  0  0  0  0  0  0  0  0  0  0  0
    5.5321    1.1585    0.0000 C   0  0  0  0  0  0  0  0  0  0  0  0
  1  4  1  0  0  0  0
  2  3  1  0  0  0  0
  2  4  1  0  0  0  0
  2  6  2  0  0  0  0
  3  5  1  0  0  0  0
  3  7  2  0  0  0  0
  4  8  2  0  0  0  0
  5  9  2  0  0  0  0
  6 10  1  0  0  0  0
  7 11  1  0  0  0  0
  8  9  1  0  0  0  0
 10 11  2  0  0  0  0
M  END
> <PUBCHEM_COMPOUND_CID>
7005

> <PUBCHEM_COMPOUND_CANONICALIZED>
1

> <PUBCHEM_CACTVS_COMPLEXITY>
133

> <PUBCHEM_CACTVS_HBOND_ACCEPTOR>
1

> <PUBCHEM_CACTVS_HBOND_DONOR>
1

> <PUBCHEM_CACTVS_ROTATABLE_BOND>
0

> <PUBCHEM_CACTVS_SUBSKEYS>
AAADccBwIAAAAAAAAAAAAAAAAAAAAAAAAAAwYAAAAAAAAADBUAAAGgAACAAADASAmAAwBsAAAgCAAiBCAAACAAAgIAAIiAAGCIgIJiKCERKAcAAkwBEImAeAwLAOgAABAAAYAAAAAAIAADAAAAAAAAAAAA==

> <PUBCHEM_IUPAC_OPENEYE_NAME>
naphthalen-1-ol

> <PUBCHEM_IUPAC_CAS_NAME>
1-naphthalenol

> <PUBCHEM_IUPAC_NAME>
naphthalen-1-ol

> <PUBCHEM_IUPAC_SYSTEMATIC_NAME>
naphthalen-1-ol

> <PUBCHEM_IUPAC_TRADITIONAL_NAME>
1-naphthol

> <PUBCHEM_IUPAC_INCHI>
InChI=1S/C10H8O/c11-10-7-3-5-8-4-1-2-6-9(8)10/h1-7,11H

> <PUBCHEM_IUPAC_INCHIKEY>
KJCVRFUGPWSIIH-UHFFFAOYSA-N

> <PUBCHEM_XLOGP3>
2.8

> <PUBCHEM_EXACT_MASS>
144.058

> <PUBCHEM_MOLECULAR_FORMULA>
C10H8O

> <PUBCHEM_MOLECULAR_WEIGHT>
144.173

> <PUBCHEM_OPENEYE_CAN_SMILES>
C1=CC=C2C(=C1)C=CC=C2O

> <PUBCHEM_OPENEYE_ISO_SMILES>
C1=CC=C2C(=C1)C=CC=C2O

> <PUBCHEM_CACTVS_TPSA>
20.2

> <PUBCHEM_MONOISOTOPIC_WEIGHT>
144.058

> <PUBCHEM_TOTAL_CHARGE>
0

> <PUBCHEM_HEAVY_ATOM_COUNT>
11

> <PUBCHEM_ATOM_DEF_STEREO_COUNT>
0

> <PUBCHEM_ATOM_UDEF_STEREO_COUNT>
0

> <PUBCHEM_BOND_DEF_STEREO_COUNT>
0

> <PUBCHEM_BOND_UDEF_STEREO_COUNT>
0

> <PUBCHEM_ISOTOPIC_ATOM_COUNT>
0

> <PUBCHEM_COMPONENT_COUNT>
1

> <PUBCHEM_CACTVS_TAUTO_COUNT>
-1

> <PUBCHEM_COORDINATE_TYPE>
1
5
255

> <PUBCHEM_BONDANNOTATIONS>
10  11  8
2  3  8
2  4  8
2  6  8
3  5  8
3  7  8
4  8  8
5  9  8
6  10  8
7  11  8
8  9  8

$$$$
220520
  -OEChem-02061913062D

 29 35  0     1  0  0  0  0  0999 V2000
    7.6682   -2.1173    0.0000 O   0  0  0  0  0  0  0  0  0  0  0  0
    4.4011   -2.1552    0.0000 O   0  0  0  0  0  0  0  0  0  0  0  0
    2.0000    1.1552    0.0000 O   0  0  0  0  0  0  0  0  0  0  0  0
    2.0000   -0.7690    0.0000 O   0  0  0  0  0  0  0  0  0  0  0  0
    6.6757    2.0213    0.0000 N   0  0  3  0  0  0  0  0  0  0  0  0
    5.2671   -0.7310    0.0000 N   0  0  0  0  0  0  0  0  0  0  0  0
    6.0675    0.6552    0.0000 C   0  0  3  0  0  0  0  0  0  0  0  0
    6.0675   -0.2690    0.0000 C   0  0  3  0  0  0  0  0  0  0  0  0
    6.8678    1.1173    0.0000 C   0  0  3  0  0  0  0  0  0  0  0  0
    6.8678   -0.7310    0.0000 C   0  0  3  0  0  0  0  0  0  0  0  0
    7.6682   -0.2690    0.0000 C   0  0  3  0  0  0  0  0  0  0  0  0
    7.6682    0.6552    0.0000 C   0  0  0  0  0  0  0  0  0  0  0  0
    5.3807    1.2736    0.0000 C   0  0  0  0  0  0  0  0  0  0  0  0
    4.4668    0.6552    0.0000 C   0  0  0  0  0  0  0  0  0  0  0  0
    5.7566    2.1179    0.0000 C   0  0  0  0  0  0  0  0  0  0  0  0
    6.8678   -1.6552    0.0000 C   0  0  3  0  0  0  0  0  0  0  0  0
    8.5285   -0.6066    0.0000 C   0  0  0  0  0  0  0  0  0  0  0  0
    8.4927    1.2200    0.0000 C   0  0  0  0  0  0  0  0  0  0  0  0
    4.4668   -0.2690    0.0000 C   0  0  0  0  0  0  0  0  0  0  0  0
    6.0675   -2.1173    0.0000 C   0  0  0  0  0  0  0  0  0  0  0  0
    5.2671   -1.6552    0.0000 C   0  0  0  0  0  0  0  0  0  0  0  0
    3.6664    1.1173    0.0000 C   0  0  0  0  0  0  0  0  0  0  0  0
    8.8418   -1.2445    0.0000 C   0  0  0  0  0  0  0  0  0  0  0  0
    8.3900   -2.1070    0.0000 C   0  0  0  0  0  0  0  0  0  0  0  0
    3.6664   -0.7310    0.0000 C   0  0  0  0  0  0  0  0  0  0  0  0
    2.8660    0.6552    0.0000 C   0  0  0  0  0  0  0  0  0  0  0  0
    2.8660   -0.2690    0.0000 C   0  0  0  0  0  0  0  0  0  0  0  0
    2.0000    2.1552    0.0000 C   0  0  0  0  0  0  0  0  0  0  0  0
    2.0000   -1.7690    0.0000 C   0  0  0  0  0  0  0  0  0  0  0  0
  1 16  1  0  0  0  0
  1 24  1  0  0  0  0
  2 21  2  0  0  0  0
  3 26  1  0  0  0  0
  3 28  1  0  0  0  0
  4 27  1  0  0  0  0
  4 29  1  0  0  0  0
  5  9  1  0  0  0  0
  5 15  1  0  0  0  0
  5 18  1  0  0  0  0
  6  8  1  0  0  0  0
  6 19  1  0  0  0  0
  6 21  1  0  0  0  0
  7  8  1  0  0  0  0
  7  9  1  0  0  0  0
  7 13  1  0  0  0  0
  7 14  1  0  0  0  0
  8 10  1  0  0  0  0
  9 12  1  0  0  0  0
 10 11  1  0  0  0  0
 10 16  1  0  0  0  0
 11 12  1  0  0  0  0
 11 17  1  0  0  0  0
 13 15  1  0  0  0  0
 14 19  1  0  0  0  0
 14 22  2  0  0  0  0
 16 20  1  0  0  0  0
 17 18  1  0  0  0  0
 17 23  2  0  0  0  0
 19 25  2  0  0  0  0
 20 21  1  0  0  0  0
 22 26  1  0  0  0  0
 23 24  1  0  0  0  0
 25 27  1  0  0  0  0
 26 27  2  0  0  0  0
M  END
> <PUBCHEM_COMPOUND_CID>
220520

> <PUBCHEM_COMPOUND_CANONICALIZED>
1

> <PUBCHEM_CACTVS_COMPLEXITY>
785

> <PUBCHEM_CACTVS_HBOND_ACCEPTOR>
5

> <PUBCHEM_CACTVS_HBOND_DONOR>
0

> <PUBCHEM_CACTVS_ROTATABLE_BOND>
2

> <PUBCHEM_CACTVS_SUBSKEYS>
AAADceB7OAAAAAAAAAAAAAAAAAAAAWLAAAA8eIEABAAAAFgBAAAAHgAAAAAADzzhmAYyxoMABACIAiVSUACCCAAhIgAAiAEO7IgNJjbE8ZuGMCpm5hnK6Ae42fOfoEABAgACQADQgAaECCSAAAAAAAAAAA==

> <PUBCHEM_IUPAC_OPENEYE_NAME>
10,11-dimethoxy-4~{a},5,5~{a},7,8,13~{a},15,15~{a},15~{b},16-decahydro-2~{H}-4,6-methanoindolo[3,2,1-ij]oxepino[2,3,4-de]pyrrolo[2,3-h]quinolin-14-one

> <PUBCHEM_IUPAC_CAS_NAME>
10,11-dimethoxy-4~{a},5,5~{a},7,8,13~{a},15,15~{a},15~{b},16-decahydro-2~{H}-4,6-methanoindolo[3,2,1-ij]oxepino[2,3,4-de]pyrrolo[2,3-h]quinolin-14-one

> <PUBCHEM_IUPAC_NAME>
10,11-dimethoxy-4~{a},5,5~{a},7,8,13~{a},15,15~{a},15~{b},16-decahydro-2~{H}-4,6-methanoindolo[3,2,1-ij]oxepino[2,3,4-de]pyrrolo[2,3-h]quinolin-14-one

> <PUBCHEM_IUPAC_SYSTEMATIC_NAME>
10,11-dimethoxy-4~{a},5,5~{a},7,8,13~{a},15,15~{a},15~{b},16-decahydro-2~{H}-4,6-methanoindolo[3,2,1-ij]oxepino[2,3,4-de]pyrrolo[2,3-h]quinolin-14-one

> <PUBCHEM_IUPAC_TRADITIONAL_NAME>
10,11-dimethoxy-4~{a},5,5~{a},7,8,13~{a},15,15~{a},15~{b},16-decahydro-2~{H}-4,6-methanoindolo[3,2,1-ij]oxepino[2,3,4-de]pyrrolo[2,3-h]quinolin-14-one

> <PUBCHEM_IUPAC_INCHI>
InChI=1S/C23H26N2O4/c1-27-16-8-14-15(9-17(16)28-2)25-20(26)10-18-21-13-7-19-23(14,22(21)25)4-5-24(19)11-12(13)3-6-29-18/h3,8-9,13,18-19,21-22H,4-7,10-11H2,1-2H3

> <PUBCHEM_IUPAC_INCHIKEY>
RRKTZKIUPZVBMF-UHFFFAOYSA-N

> <PUBCHEM_XLOGP3>
1

> <PUBCHEM_EXACT_MASS>
394.189

> <PUBCHEM_MOLECULAR_FORMULA>
C23H26N2O4

> <PUBCHEM_MOLECULAR_WEIGHT>
394.471

> <PUBCHEM_OPENEYE_CAN_SMILES>
COC1=C(C=C2C(=C1)C34CCN5C3CC6C7C4N2C(=O)CC7OCC=C6C5)OC

> <PUBCHEM_OPENEYE_ISO_SMILES>
COC1=C(C=C2C(=C1)C34CCN5C3CC6C7C4N2C(=O)CC7OCC=C6C5)OC

> <PUBCHEM_CACTVS_TPSA>
51.2

> <PUBCHEM_MONOISOTOPIC_WEIGHT>
394.189

> <PUBCHEM_TOTAL_CHARGE>
0

> <PUBCHEM_HEAVY_ATOM_COUNT>
29

> <PUBCHEM_ATOM_DEF_STEREO_COUNT>
0

> <PUBCHEM_ATOM_UDEF_STEREO_COUNT>
6

> <PUBCHEM_BOND_DEF_STEREO_COUNT>
0

> <PUBCHEM_BOND_UDEF_STEREO_COUNT>
0

> <PUBCHEM_ISOTOPIC_ATOM_COUNT>
0

> <PUBCHEM_COMPONENT_COUNT>
1

> <PUBCHEM_CACTVS_TAUTO_COUNT>
-1

> <PUBCHEM_COORDINATE_TYPE>
1
5
255

> <PUBCHEM_BONDANNOTATIONS>
10  11  3
11  12  3
14  19  8
14  22  8
16  20  3
19  25  8
22  26  8
25  27  8
26  27  8
8  6  3
7  13  3
9  12  3

$$$$
22311
  -OEChem-02061913072D

 10 10  0     1  0  0  0  0  0999 V2000
    2.8660    0.7500    0.0000 C   0  0  3  0  0  0  0  0  0  0  0  0
    2.0000    0.2500    0.0000 C   0  0  0  0  0  0  0  0  0  0  0  0
    3.7320    0.2500    0.0000 C   0  0  0  0  0  0  0  0  0  0  0  0
    2.0000   -0.7500    0.0000 C   0  0  0  0  0  0  0  0  0  0  0  0
    2.8660   -1.2500    0.0000 C   0  0  0  0  0  0  0  0  0  0  0  0
    3.7320   -0.7500    0.0000 C   0  0  0  0  0  0  0  0  0  0  0  0
    2.8660    1.7500    0.0000 C   0  0  0  0  0  0  0  0  0  0  0  0
    2.8660   -2.2500    0.0000 C   0  0  0  0  0  0  0  0  0  0  0  0
    3.7320    2.2500    0.0000 C   0  0  0  0  0  0  0  0  0  0  0  0
    2.0000    2.2500    0.0000 C   0  0  0  0  0  0  0  0  0  0  0  0
  1  2  1  0  0  0  0
  1  3  1  0  0  0  0
  1  7  1  0  0  0  0
  2  4  1  0  0  0  0
  3  6  1  0  0  0  0
  4  5  1  0  0  0  0
  5  6  2  0  0  0  0
  5  8  1  0  0  0  0
  7  9  1  0  0  0  0
  7 10  2  0  0  0  0
M  END
> <PUBCHEM_COMPOUND_CID>
22311

> <PUBCHEM_COMPOUND_CANONICALIZED>
1

> <PUBCHEM_CACTVS_COMPLEXITY>
163

> <PUBCHEM_CACTVS_HBOND_ACCEPTOR>
0

> <PUBCHEM_CACTVS_HBOND_DONOR>
0

> <PUBCHEM_CACTVS_ROTATABLE_BOND>
1

> <PUBCHEM_CACTVS_SUBSKEYS>
AAADceBwAAAAAAAAAAAAAAAAAAAAAAAAAAAgAAAAAAAAAAAAAAAAGAAAAAAADQCAAAACAAAAAACAAiBCAAAAAAAgAAAACAAAAAgAAAIAAQAAAAAAgAAIAAMAgAAOAAAAAAAAAAAAAAAAAAAAAAAAAAAAAA==

> <PUBCHEM_IUPAC_OPENEYE_NAME>
4-isopropenyl-1-methyl-cyclohexene

> <PUBCHEM_IUPAC_CAS_NAME>
1-methyl-4-(1-methylethenyl)cyclohexene

> <PUBCHEM_IUPAC_NAME>
1-methyl-4-prop-1-en-2-ylcyclohexene

> <PUBCHEM_IUPAC_SYSTEMATIC_NAME>
1-methyl-4-prop-1-en-2-yl-cyclohexene

> <PUBCHEM_IUPAC_TRADITIONAL_NAME>
4-isopropenyl-1-methyl-cyclohexene

> <PUBCHEM_IUPAC_INCHI>
InChI=1S/C10H16/c1-8(2)10-6-4-9(3)5-7-10/h4,10H,1,5-7H2,2-3H3

> <PUBCHEM_IUPAC_INCHIKEY>
XMGQYMWWDOXHJM-UHFFFAOYSA-N

> <PUBCHEM_XLOGP3_AA>
3.4

> <PUBCHEM_EXACT_MASS>
136.125

> <PUBCHEM_MOLECULAR_FORMULA>
C10H16

> <PUBCHEM_MOLECULAR_WEIGHT>
136.238

> <PUBCHEM_OPENEYE_CAN_SMILES>
CC1=CCC(CC1)C(=C)C

> <PUBCHEM_OPENEYE_ISO_SMILES>
CC1=CCC(CC1)C(=C)C

> <PUBCHEM_CACTVS_TPSA>
0

> <PUBCHEM_MONOISOTOPIC_WEIGHT>
136.125

> <PUBCHEM_TOTAL_CHARGE>
0

> <PUBCHEM_HEAVY_ATOM_COUNT>
10

> <PUBCHEM_ATOM_DEF_STEREO_COUNT>
0

> <PUBCHEM_ATOM_UDEF_STEREO_COUNT>
1

> <PUBCHEM_BOND_DEF_STEREO_COUNT>
0

> <PUBCHEM_BOND_UDEF_STEREO_COUNT>
0

> <PUBCHEM_ISOTOPIC_ATOM_COUNT>
0

> <PUBCHEM_COMPONENT_COUNT>
1

> <PUBCHEM_CACTVS_TAUTO_COUNT>
-1

> <PUBCHEM_COORDINATE_TYPE>
1
5
255

> <PUBCHEM_BONDANNOTATIONS>
1  7  3

$$$$
5988
  -OEChem-02061913062D

 23 24  0     1  0  0  0  0  0999 V2000
    5.8671    0.7306    0.0000 O   0  0  0  0  0  0  0  0  0  0  0  0
    6.8671   -0.2694    0.0000 O   0  0  0  0  0  0  0  0  0  0  0  0
    5.1350   -0.2694    0.0000 O   0  0  0  0  0  0  0  0  0  0  0  0
    8.1271    1.9906    0.0000 O   0  0  0  0  0  0  0  0  0  0  0  0
    6.3671    3.2694    0.0000 O   0  0  0  0  0  0  0  0  0  0  0  0
    6.8671   -2.2694    0.0000 O   0  0  0  0  0  0  0  0  0  0  0  0
    5.1350   -3.2694    0.0000 O   0  0  0  0  0  0  0  0  0  0  0  0
    3.4030   -2.2694    0.0000 O   0  0  0  0  0  0  0  0  0  0  0  0
    8.5613    1.0907    0.0000 O   0  0  0  0  0  0  0  0  0  0  0  0
    4.3991    2.9688    0.0000 O   0  0  0  0  0  0  0  0  0  0  0  0
    2.5369   -0.7694    0.0000 O   0  0  0  0  0  0  0  0  0  0  0  0
    6.8671    0.7306    0.0000 C   0  0  1  0  0  0  0  0  0  0  0  0
    7.1761    1.6816    0.0000 C   0  0  2  0  0  0  0  0  0  0  0  0
    6.3671    2.2694    0.0000 C   0  0  1  0  0  0  0  0  0  0  0  0
    5.5580    1.6816    0.0000 C   0  0  1  0  0  0  0  0  0  0  0  0
    6.0010   -0.7694    0.0000 C   0  0  1  0  0  0  0  0  0  0  0  0
    6.0010   -1.7694    0.0000 C   0  0  1  0  0  0  0  0  0  0  0  0
    5.1350   -2.2694    0.0000 C   0  0  2  0  0  0  0  0  0  0  0  0
    4.2690   -1.7694    0.0000 C   0  0  1  0  0  0  0  0  0  0  0  0
    4.2690   -0.7694    0.0000 C   0  0  1  0  0  0  0  0  0  0  0  0
    7.8181    0.4216    0.0000 C   0  0  0  0  0  0  0  0  0  0  0  0
    4.6070    1.9906    0.0000 C   0  0  0  0  0  0  0  0  0  0  0  0
    3.4030   -0.2694    0.0000 C   0  0  0  0  0  0  0  0  0  0  0  0
  1 12  1  0  0  0  0
  1 15  1  0  0  0  0
 12  2  1  6  0  0  0
 16  2  1  6  0  0  0
  3 16  1  0  0  0  0
  3 20  1  0  0  0  0
 13  4  1  6  0  0  0
 14  5  1  1  0  0  0
 17  6  1  6  0  0  0
 18  7  1  1  0  0  0
 19  8  1  6  0  0  0
  9 21  1  0  0  0  0
 10 22  1  0  0  0  0
 11 23  1  0  0  0  0
 12 13  1  0  0  0  0
 12 21  1  0  0  0  0
 13 14  1  0  0  0  0
 14 15  1  0  0  0  0
 15 22  1  6  0  0  0
 16 17  1  0  0  0  0
 17 18  1  0  0  0  0
 18 19  1  0  0  0  0
 19 20  1  0  0  0  0
 20 23  1  1  0  0  0
M  END
> <PUBCHEM_COMPOUND_CID>
5988

> <PUBCHEM_COMPOUND_CANONICALIZED>
1

> <PUBCHEM_CACTVS_COMPLEXITY>
395

> <PUBCHEM_CACTVS_HBOND_ACCEPTOR>
11

> <PUBCHEM_CACTVS_HBOND_DONOR>
8

> <PUBCHEM_CACTVS_ROTATABLE_BOND>
5

> <PUBCHEM_CACTVS_SUBSKEYS>
AAADceBwPAAAAAAAAAAAAAAAAAAAASAAAAAkAAAAAAAAAAAAAAAAGgAACAAACBSwgAMACAAABgAAAAAAAAAAAAAAAAAAAAAAAAAREAIAAAAiQAAFAAAHAAHAYAwAAAAAAAAAAAAAAAAAAAAAAAAAAAAAAA==

> <PUBCHEM_IUPAC_OPENEYE_NAME>
(2~{R},3~{R},4~{S},5~{S},6~{R})-2-[(2~{S},3~{S},4~{S},5~{R})-3,4-dihydroxy-2,5-bis(hydroxymethyl)tetrahydrofuran-2-yl]oxy-6-(hydroxymethyl)tetrahydropyran-3,4,5-triol

> <PUBCHEM_IUPAC_CAS_NAME>
(2~{R},3~{R},4~{S},5~{S},6~{R})-2-[[(2~{S},3~{S},4~{S},5~{R})-3,4-dihydroxy-2,5-bis(hydroxymethyl)-2-oxolanyl]oxy]-6-(hydroxymethyl)oxane-3,4,5-triol

> <PUBCHEM_IUPAC_NAME>
(2~{R},3~{R},4~{S},5~{S},6~{R})-2-[(2~{S},3~{S},4~{S},5~{R})-3,4-dihydroxy-2,5-bis(hydroxymethyl)oxolan-2-yl]oxy-6-(hydroxymethyl)oxane-3,4,5-triol

> <PUBCHEM_IUPAC_SYSTEMATIC_NAME>
(2~{R},3~{R},4~{S},5~{S},6~{R})-2-[(2~{S},3~{S},4~{S},5~{R})-2,5-bis(hydroxymethyl)-3,4-bis(oxidanyl)oxolan-2-yl]oxy-6-(hydroxymethyl)oxane-3,4,5-triol

> <PUBCHEM_IUPAC_TRADITIONAL_NAME>
(2~{R},3~{R},4~{S},5~{S},6~{R})-2-[(2~{S},3~{S},4~{S},5~{R})-3,4-dihydroxy-2,5-dimethylol-tetrahydrofuran-2-yl]oxy-6-methylol-tetrahydropyran-3,4,5-triol

> <PUBCHEM_IUPAC_INCHI>
InChI=1S/C12H22O11/c13-1-4-6(16)8(18)9(19)11(21-4)23-12(3-15)10(20)7(17)5(2-14)22-12/h4-11,13-20H,1-3H2/t4-,5-,6-,7-,8+,9-,10+,11-,12+/m1/s1

> <PUBCHEM_IUPAC_INCHIKEY>
CZMRCDWAGMRECN-UGDNZRGBSA-N

> <PUBCHEM_XLOGP3>
-3.7

> <PUBCHEM_EXACT_MASS>
342.116

> <PUBCHEM_MOLECULAR_FORMULA>
C12H22O11

> <PUBCHEM_MOLECULAR_WEIGHT>
342.297

> <PUBCHEM_OPENEYE_CAN_SMILES>
C(C1C(C(C(C(O1)OC2(C(C(C(O2)CO)O)O)CO)O)O)O)O

> <PUBCHEM_OPENEYE_ISO_SMILES>
C([C@@H]1[C@H]([C@@H]([C@H]([C@H](O1)O[C@]2([C@H]([C@@H]([C@H](O2)CO)O)O)CO)O)O)O)O

> <PUBCHEM_CACTVS_TPSA>
190

> <PUBCHEM_MONOISOTOPIC_WEIGHT>
342.116

> <PUBCHEM_TOTAL_CHARGE>
0

> <PUBCHEM_HEAVY_ATOM_COUNT>
23

> <PUBCHEM_ATOM_DEF_STEREO_COUNT>
9

> <PUBCHEM_ATOM_UDEF_STEREO_COUNT>
0

> <PUBCHEM_BOND_DEF_STEREO_COUNT>
0

> <PUBCHEM_BOND_UDEF_STEREO_COUNT>
0

> <PUBCHEM_ISOTOPIC_ATOM_COUNT>
0

> <PUBCHEM_COMPONENT_COUNT>
1

> <PUBCHEM_CACTVS_TAUTO_COUNT>
-1

> <PUBCHEM_COORDINATE_TYPE>
1
5
255

> <PUBCHEM_BONDANNOTATIONS>
15  22  6
12  2  6
16  2  6
20  23  5
13  4  6
14  5  5
17  6  6
18  7  5
19  8  6

$$$$
61021
  -OEChem-02061913062D

 12 12  0     0  0  0  0  0  0999 V2000
    4.6310   -1.2071    0.0000 O   0  0  0  0  0  0  0  0  0  0  0  0
    2.9239   -0.5000    0.0000 O   0  0  0  0  0  0  0  0  0  0  0  0
    3.6310    1.2071    0.0000 O   0  0  0  0  0  0  0  0  0  0  0  0
    5.3381    0.5000    0.0000 O   0  0  0  0  0  0  0  0  0  0  0  0
    2.9239    0.5000    0.0000 C   0  0  0  0  0  0  0  0  0  0  0  0
    3.6310   -1.2071    0.0000 C   0  0  0  0  0  0  0  0  0  0  0  0
    5.3381   -0.5000    0.0000 C   0  0  0  0  0  0  0  0  0  0  0  0
    4.6310    1.2071    0.0000 C   0  0  0  0  0  0  0  0  0  0  0  0
    3.2483   -2.1310    0.0000 C   0  0  0  0  0  0  0  0  0  0  0  0
    2.0000    0.8827    0.0000 C   0  0  0  0  0  0  0  0  0  0  0  0
    6.2620   -0.8827    0.0000 C   0  0  0  0  0  0  0  0  0  0  0  0
    5.0137    2.1310    0.0000 C   0  0  0  0  0  0  0  0  0  0  0  0
  1  6  1  0  0  0  0
  1  7  1  0  0  0  0
  2  5  1  0  0  0  0
  2  6  1  0  0  0  0
  3  5  1  0  0  0  0
  3  8  1  0  0  0  0
  4  7  1  0  0  0  0
  4  8  1  0  0  0  0
  5 10  1  0  0  0  0
  6  9  1  0  0  0  0
  7 11  1  0  0  0  0
  8 12  1  0  0  0  0
M  END
> <PUBCHEM_COMPOUND_CID>
61021

> <PUBCHEM_COMPOUND_CANONICALIZED>
1

> <PUBCHEM_CACTVS_COMPLEXITY>
91

> <PUBCHEM_CACTVS_HBOND_ACCEPTOR>
4

> <PUBCHEM_CACTVS_HBOND_DONOR>
0

> <PUBCHEM_CACTVS_ROTATABLE_BOND>
0

> <PUBCHEM_CACTVS_SUBSKEYS>
AAADceBwOAAAAAAAAAAAAAAAAAAAAAAAAAAAAAAAAAASAAAAAAAAGgAAAAAAAACwgAMCCAAABAAAAAAAAAAAAAAAAAAAAAAAAAAQAAAAAAAiAAAAAAAEAAAAAAAAAAAAAAAAAAAAAAAAAAAAAAAAAAAAAA==

> <PUBCHEM_IUPAC_OPENEYE_NAME>
2,4,6,8-tetramethyl-1,3,5,7-tetraoxocane

> <PUBCHEM_IUPAC_CAS_NAME>
2,4,6,8-tetramethyl-1,3,5,7-tetraoxocane

> <PUBCHEM_IUPAC_NAME>
2,4,6,8-tetramethyl-1,3,5,7-tetraoxocane

> <PUBCHEM_IUPAC_SYSTEMATIC_NAME>
2,4,6,8-tetramethyl-1,3,5,7-tetraoxocane

> <PUBCHEM_IUPAC_TRADITIONAL_NAME>
2,4,6,8-tetramethyl-1,3,5,7-tetraoxocane

> <PUBCHEM_IUPAC_INCHI>
InChI=1S/C8H16O4/c1-5-9-6(2)11-8(4)12-7(3)10-5/h5-8H,1-4H3

> <PUBCHEM_IUPAC_INCHIKEY>
GKKDCARASOJPNG-UHFFFAOYSA-N

> <PUBCHEM_XLOGP3>
1.1

> <PUBCHEM_EXACT_MASS>
176.105

> <PUBCHEM_MOLECULAR_FORMULA>
C8H16O4

> <PUBCHEM_MOLECULAR_WEIGHT>
176.212

> <PUBCHEM_OPENEYE_CAN_SMILES>
CC1OC(OC(OC(O1)C)C)C

> <PUBCHEM_OPENEYE_ISO_SMILES>
CC1OC(OC(OC(O1)C)C)C

> <PUBCHEM_CACTVS_TPSA>
36.9

> <PUBCHEM_MONOISOTOPIC_WEIGHT>
176.105

> <PUBCHEM_TOTAL_CHARGE>
0

> <PUBCHEM_HEAVY_ATOM_COUNT>
12

> <PUBCHEM_ATOM_DEF_STEREO_COUNT>
0

> <PUBCHEM_ATOM_UDEF_STEREO_COUNT>
0

> <PUBCHEM_BOND_DEF_STEREO_COUNT>
0

> <PUBCHEM_BOND_UDEF_STEREO_COUNT>
0

> <PUBCHEM_ISOTOPIC_ATOM_COUNT>
0

> <PUBCHEM_COMPONENT_COUNT>
1

> <PUBCHEM_CACTVS_TAUTO_COUNT>
-1

> <PUBCHEM_COORDINATE_TYPE>
1
5
255

$$$$
996
  -OEChem-02061913062D

  7  7  0     0  0  0  0  0  0999 V2000
    2.8660    1.3450    0.0000 O   0  0  0  0  0  0  0  0  0  0  0  0
    2.8660    0.3450    0.0000 C   0  0  0  0  0  0  0  0  0  0  0  0
    2.0000   -0.1550    0.0000 C   0  0  0  0  0  0  0  0  0  0  0  0
    3.7320   -0.1550    0.0000 C   0  0  0  0  0  0  0  0  0  0  0  0
    2.0000   -1.1550    0.0000 C   0  0  0  0  0  0  0  0  0  0  0  0
    3.7320   -1.1550    0.0000 C   0  0  0  0  0  0  0  0  0  0  0  0
    2.8660   -1.6550    0.0000 C   0  0  0  0  0  0  0  0  0  0  0  0
  1  2  1  0  0  0  0
  2  3  2  0  0  0  0
  2  4  1  0  0  0  0
  3  5  1  0  0  0  0
  4  6  2  0  0  0  0
  5  7  2  0  0  0  0
  6  7  1  0  0  0  0
M  END
> <PUBCHEM_COMPOUND_CID>
996

> <PUBCHEM_COMPOUND_CANONICALIZED>
1

> <PUBCHEM_CACTVS_COMPLEXITY>
46.1

> <PUBCHEM_CACTVS_HBOND_ACCEPTOR>
1

> <PUBCHEM_CACTVS_HBOND_DONOR>
1

> <PUBCHEM_CACTVS_ROTATABLE_BOND>
0

> <PUBCHEM_CACTVS_SUBSKEYS>
AAADcYBgIAAAAAAAAAAAAAAAAAAAAAAAAAAwAAAAAAAAAAABAAAAGgAACAAACASAkAAwBoAAAgCAACBCAAACAAAgIAAIiAAGCIgIJiKCERKAcAAkwBEImAeAQAAAAAAAAAAAAAAAAAAAAAAAAAAAAAAAAA==

> <PUBCHEM_IUPAC_OPENEYE_NAME>
phenol

> <PUBCHEM_IUPAC_CAS_NAME>
phenol

> <PUBCHEM_IUPAC_NAME>
phenol

> <PUBCHEM_IUPAC_SYSTEMATIC_NAME>
phenol

> <PUBCHEM_IUPAC_TRADITIONAL_NAME>
phenol

> <PUBCHEM_IUPAC_INCHI>
InChI=1S/C6H6O/c7-6-4-2-1-3-5-6/h1-5,7H

> <PUBCHEM_IUPAC_INCHIKEY>
ISWSIDIOOBJBQZ-UHFFFAOYSA-N

> <PUBCHEM_XLOGP3>
1.5

> <PUBCHEM_EXACT_MASS>
94.042

> <PUBCHEM_MOLECULAR_FORMULA>
C6H6O

> <PUBCHEM_MOLECULAR_WEIGHT>
94.113

> <PUBCHEM_OPENEYE_CAN_SMILES>
C1=CC=C(C=C1)O

> <PUBCHEM_OPENEYE_ISO_SMILES>
C1=CC=C(C=C1)O

> <PUBCHEM_CACTVS_TPSA>
20.2

> <PUBCHEM_MONOISOTOPIC_WEIGHT>
94.042

> <PUBCHEM_TOTAL_CHARGE>
0

> <PUBCHEM_HEAVY_ATOM_COUNT>
7

> <PUBCHEM_ATOM_DEF_STEREO_COUNT>
0

> <PUBCHEM_ATOM_UDEF_STEREO_COUNT>
0

> <PUBCHEM_BOND_DEF_STEREO_COUNT>
0

> <PUBCHEM_BOND_UDEF_STEREO_COUNT>
0

> <PUBCHEM_ISOTOPIC_ATOM_COUNT>
0

> <PUBCHEM_COMPONENT_COUNT>
1

> <PUBCHEM_CACTVS_TAUTO_COUNT>
-1

> <PUBCHEM_COORDINATE_TYPE>
1
5
255

> <PUBCHEM_BONDANNOTATIONS>
2  3  8
2  4  8
3  5  8
4  6  8
5  7  8
6  7  8

$$$$
440917
  -OEChem-02061913092D

 10 10  0     1  0  0  0  0  0999 V2000
    2.8660    0.7500    0.0000 C   0  0  2  0  0  0  0  0  0  0  0  0
    2.0000    0.2500    0.0000 C   0  0  0  0  0  0  0  0  0  0  0  0
    3.7320    0.2500    0.0000 C   0  0  0  0  0  0  0  0  0  0  0  0
    2.0000   -0.7500    0.0000 C   0  0  0  0  0  0  0  0  0  0  0  0
    2.8660   -1.2500    0.0000 C   0  0  0  0  0  0  0  0  0  0  0  0
    3.7320   -0.7500    0.0000 C   0  0  0  0  0  0  0  0  0  0  0  0
    2.8660    1.7500    0.0000 C   0  0  0  0  0  0  0  0  0  0  0  0
    2.8660   -2.2500    0.0000 C   0  0  0  0  0  0  0  0  0  0  0  0
    3.7320    2.2500    0.0000 C   0  0  0  0  0  0  0  0  0  0  0  0
    2.0000    2.2500    0.0000 C   0  0  0  0  0  0  0  0  0  0  0  0
  1  2  1  0  0  0  0
  1  3  1  0  0  0  0
  1  7  1  1  0  0  0
  2  4  1  0  0  0  0
  3  6  1  0  0  0  0
  4  5  1  0  0  0  0
  5  6  2  0  0  0  0
  5  8  1  0  0  0  0
  7  9  1  0  0  0  0
  7 10  2  0  0  0  0
M  END
> <PUBCHEM_COMPOUND_CID>
440917

> <PUBCHEM_COMPOUND_CANONICALIZED>
1

> <PUBCHEM_CACTVS_COMPLEXITY>
163

> <PUBCHEM_CACTVS_HBOND_ACCEPTOR>
0

> <PUBCHEM_CACTVS_HBOND_DONOR>
0

> <PUBCHEM_CACTVS_ROTATABLE_BOND>
1

> <PUBCHEM_CACTVS_SUBSKEYS>
AAADceBwAAAAAAAAAAAAAAAAAAAAAAAAAAAgAAAAAAAAAAAAAAAAGAAAAAAADQCAAAACAAAAAACAAiBCAAAAAAAgAAAACAAAAAgAAAIAAQAAAAAAgAAIAAMAgAAOAAAAAAAAAAAAAAAAAAAAAAAAAAAAAA==

> <PUBCHEM_IUPAC_OPENEYE_NAME>
(4~{R})-4-isopropenyl-1-methyl-cyclohexene

> <PUBCHEM_IUPAC_CAS_NAME>
(4~{R})-1-methyl-4-(1-methylethenyl)cyclohexene

> <PUBCHEM_IUPAC_NAME>
(4~{R})-1-methyl-4-prop-1-en-2-ylcyclohexene

> <PUBCHEM_IUPAC_SYSTEMATIC_NAME>
(4~{R})-1-methyl-4-prop-1-en-2-yl-cyclohexene

> <PUBCHEM_IUPAC_TRADITIONAL_NAME>
(4~{R})-4-isopropenyl-1-methyl-cyclohexene

> <PUBCHEM_IUPAC_INCHI>
InChI=1S/C10H16/c1-8(2)10-6-4-9(3)5-7-10/h4,10H,1,5-7H2,2-3H3/t10-/m0/s1

> <PUBCHEM_IUPAC_INCHIKEY>
XMGQYMWWDOXHJM-JTQLQIEISA-N

> <PUBCHEM_XLOGP3_AA>
3.4

> <PUBCHEM_EXACT_MASS>
136.125

> <PUBCHEM_MOLECULAR_FORMULA>
C10H16

> <PUBCHEM_MOLECULAR_WEIGHT>
136.238

> <PUBCHEM_OPENEYE_CAN_SMILES>
CC1=CCC(CC1)C(=C)C

> <PUBCHEM_OPENEYE_ISO_SMILES>
CC1=CC[C@@H](CC1)C(=C)C

> <PUBCHEM_CACTVS_TPSA>
0

> <PUBCHEM_MONOISOTOPIC_WEIGHT>
136.125

> <PUBCHEM_TOTAL_CHARGE>
0

> <PUBCHEM_HEAVY_ATOM_COUNT>
10

> <PUBCHEM_ATOM_DEF_STEREO_COUNT>
1

> <PUBCHEM_ATOM_UDEF_STEREO_COUNT>
0

> <PUBCHEM_BOND_DEF_STEREO_COUNT>
0

> <PUBCHEM_BOND_UDEF_STEREO_COUNT>
0

> <PUBCHEM_ISOTOPIC_ATOM_COUNT>
0

> <PUBCHEM_COMPONENT_COUNT>
1

> <PUBCHEM_CACTVS_TAUTO_COUNT>
-1

> <PUBCHEM_COORDINATE_TYPE>
1
5
255

> <PUBCHEM_BONDANNOTATIONS>
1  7  5

$$$$
241
  -OEChem-02061913062D

  6  6  0     0  0  0  0  0  0999 V2000
    2.8660    1.0000    0.0000 C   0  0  0  0  0  0  0  0  0  0  0  0
    2.0000    0.5000    0.0000 C   0  0  0  0  0  0  0  0  0  0  0  0
    3.7320    0.5000    0.0000 C   0  0  0  0  0  0  0  0  0  0  0  0
    2.0000   -0.5000    0.0000 C   0  0  0  0  0  0  0  0  0  0  0  0
    3.7320   -0.5000    0.0000 C   0  0  0  0  0  0  0  0  0  0  0  0
    2.8660   -1.0000    0.0000 C   0  0  0  0  0  0  0  0  0  0  0  0
  1  2  2  0  0  0  0
  1  3  1  0  0  0  0
  2  4  1  0  0  0  0
  3  5  2  0  0  0  0
  4  6  2  0  0  0  0
  5  6  1  0  0  0  0
M  END
> <PUBCHEM_COMPOUND_CID>
241

> <PUBCHEM_COMPOUND_CANONICALIZED>
1

> <PUBCHEM_CACTVS_COMPLEXITY>
15.5

> <PUBCHEM_CACTVS_HBOND_ACCEPTOR>
0

> <PUBCHEM_CACTVS_HBOND_DONOR>
0

> <PUBCHEM_CACTVS_ROTATABLE_BOND>
0

> <PUBCHEM_CACTVS_SUBSKEYS>
AAADcYBgAAAAAAAAAAAAAAAAAAAAAAAAAAAwAAAAAAAAAAABAAAAGAAAAAAACACAEAAwAIAAAACAACBCAAACAAAgAAAIiAAAAIgIICKAERCAIAAggAAIiAcAAAAAAAAAAAAAAAAAAAAAAAAAAAAAAAAAAA==

> <PUBCHEM_IUPAC_OPENEYE_NAME>
benzene

> <PUBCHEM_IUPAC_CAS_NAME>
benzene

> <PUBCHEM_IUPAC_NAME>
benzene

> <PUBCHEM_IUPAC_SYSTEMATIC_NAME>
benzene

> <PUBCHEM_IUPAC_TRADITIONAL_NAME>
benzene

> <PUBCHEM_IUPAC_INCHI>
InChI=1S/C6H6/c1-2-4-6-5-3-1/h1-6H

> <PUBCHEM_IUPAC_INCHIKEY>
UHOVQNZJYSORNB-UHFFFAOYSA-N

> <PUBCHEM_XLOGP3>
2.1

> <PUBCHEM_EXACT_MASS>
78.047

> <PUBCHEM_MOLECULAR_FORMULA>
C6H6

> <PUBCHEM_MOLECULAR_WEIGHT>
78.114

> <PUBCHEM_OPENEYE_CAN_SMILES>
C1=CC=CC=C1

> <PUBCHEM_OPENEYE_ISO_SMILES>
C1=CC=CC=C1

> <PUBCHEM_CACTVS_TPSA>
0

> <PUBCHEM_MONOISOTOPIC_WEIGHT>
78.047

> <PUBCHEM_TOTAL_CHARGE>
0

> <PUBCHEM_HEAVY_ATOM_COUNT>
6

> <PUBCHEM_ATOM_DEF_STEREO_COUNT>
0

> <PUBCHEM_ATOM_UDEF_STEREO_COUNT>
0

> <PUBCHEM_BOND_DEF_STEREO_COUNT>
0

> <PUBCHEM_BOND_UDEF_STEREO_COUNT>
0

> <PUBCHEM_ISOTOPIC_ATOM_COUNT>
0

> <PUBCHEM_COMPONENT_COUNT>
1

> <PUBCHEM_CACTVS_TAUTO_COUNT>
-1

> <PUBCHEM_COORDINATE_TYPE>
1
5
255

> <PUBCHEM_BONDANNOTATIONS>
1  2  8
1  3  8
2  4  8
3  5  8
4  6  8
5  6  8

$$$$
7219
  -OEChem-02061913072D

  9 10  0     0  0  0  0  0  0999 V2000
    3.7320    0.5000    0.0000 C   0  0  0  0  0  0  0  0  0  0  0  0
    4.6783    0.8047    0.0000 C   0  0  0  0  0  0  0  0  0  0  0  0
    3.7320   -0.5000    0.0000 C   0  0  0  0  0  0  0  0  0  0  0  0
    5.2619   -0.0000    0.0000 C   0  0  0  0  0  0  0  0  0  0  0  0
    4.6783   -0.8047    0.0000 C   0  0  0  0  0  0  0  0  0  0  0  0
    2.8660    1.0000    0.0000 C   0  0  0  0  0  0  0  0  0  0  0  0
    2.8660   -1.0000    0.0000 C   0  0  0  0  0  0  0  0  0  0  0  0
    2.0000    0.5000    0.0000 C   0  0  0  0  0  0  0  0  0  0  0  0
    2.0000   -0.5000    0.0000 C   0  0  0  0  0  0  0  0  0  0  0  0
  1  2  1  0  0  0  0
  1  3  1  0  0  0  0
  1  6  2  0  0  0  0
  2  4  1  0  0  0  0
  3  5  1  0  0  0  0
  3  7  2  0  0  0  0
  4  5  2  0  0  0  0
  6  8  1  0  0  0  0
  7  9  1  0  0  0  0
  8  9  2  0  0  0  0
M  END
> <PUBCHEM_COMPOUND_CID>
7219

> <PUBCHEM_COMPOUND_CANONICALIZED>
1

> <PUBCHEM_CACTVS_COMPLEXITY>
124

> <PUBCHEM_CACTVS_HBOND_ACCEPTOR>
0

> <PUBCHEM_CACTVS_HBOND_DONOR>
0

> <PUBCHEM_CACTVS_ROTATABLE_BOND>
0

> <PUBCHEM_CACTVS_SUBSKEYS>
AAADccBwAAAAAAAAAAAAAAAAAAAAAQAAAAAwAAAAAAAAAEABAAAAGAAAAAAADACAGAAwAIAAAACAAiBCAAACAAAgAAAIiAAAAIgIICKAERCAIAAggAAIiAcAgIAOgAAAAAAQAAAAAAAAACAAAAAAAAAAAA==

> <PUBCHEM_IUPAC_OPENEYE_NAME>
1~{H}-indene

> <PUBCHEM_IUPAC_CAS_NAME>
1~{H}-indene

> <PUBCHEM_IUPAC_NAME>
1~{H}-indene

> <PUBCHEM_IUPAC_SYSTEMATIC_NAME>
1~{H}-indene

> <PUBCHEM_IUPAC_TRADITIONAL_NAME>
1~{H}-indene

> <PUBCHEM_IUPAC_INCHI>
InChI=1S/C9H8/c1-2-5-9-7-3-6-8(9)4-1/h1-6H,7H2

> <PUBCHEM_IUPAC_INCHIKEY>
YBYIRNPNPLQARY-UHFFFAOYSA-N

> <PUBCHEM_XLOGP3>
2.9

> <PUBCHEM_EXACT_MASS>
116.063

> <PUBCHEM_MOLECULAR_FORMULA>
C9H8

> <PUBCHEM_MOLECULAR_WEIGHT>
116.163

> <PUBCHEM_OPENEYE_CAN_SMILES>
C1C=CC2=CC=CC=C21

> <PUBCHEM_OPENEYE_ISO_SMILES>
C1C=CC2=CC=CC=C21

> <PUBCHEM_CACTVS_TPSA>
0

> <PUBCHEM_MONOISOTOPIC_WEIGHT>
116.063

> <PUBCHEM_TOTAL_CHARGE>
0

> <PUBCHEM_HEAVY_ATOM_COUNT>
9

> <PUBCHEM_ATOM_DEF_STEREO_COUNT>
0

> <PUBCHEM_ATOM_UDEF_STEREO_COUNT>
0

> <PUBCHEM_BOND_DEF_STEREO_COUNT>
0

> <PUBCHEM_BOND_UDEF_STEREO_COUNT>
0

> <PUBCHEM_ISOTOPIC_ATOM_COUNT>
0

> <PUBCHEM_COMPONENT_COUNT>
1

> <PUBCHEM_CACTVS_TAUTO_COUNT>
-1

> <PUBCHEM_COORDINATE_TYPE>
1
5
255

> <PUBCHEM_BONDANNOTATIONS>
1  3  8
1  6  8
3  7  8
6  8  8
7  9  8
8  9  8

$$$$
7198
  -OEChem-02061913072D

 14 14  0     0  0  0  0  0  0999 V2000
    2.0000   -2.5000    0.0000 O   0  0  0  0  0  0  0  0  0  0  0  0
    3.7320    2.5000    0.0000 O   0  0  0  0  0  0  0  0  0  0  0  0
    2.0000    2.5000    0.0000 O   0  0  0  0  0  0  0  0  0  0  0  0
    3.7320   -2.5000    0.0000 O   0  0  0  0  0  0  0  0  0  0  0  0
    2.8660    1.0000    0.0000 C   0  0  0  0  0  0  0  0  0  0  0  0
    2.8660   -1.0000    0.0000 C   0  0  0  0  0  0  0  0  0  0  0  0
    2.0000   -0.5000    0.0000 C   0  0  0  0  0  0  0  0  0  0  0  0
    3.7320   -0.5000    0.0000 C   0  0  0  0  0  0  0  0  0  0  0  0
    2.0000    0.5000    0.0000 C   0  0  0  0  0  0  0  0  0  0  0  0
    3.7320    0.5000    0.0000 C   0  0  0  0  0  0  0  0  0  0  0  0
    2.8660   -2.0000    0.0000 C   0  0  0  0  0  0  0  0  0  0  0  0
    2.8660    2.0000    0.0000 C   0  0  0  0  0  0  0  0  0  0  0  0
    3.7320    3.5000    0.0000 C   0  0  0  0  0  0  0  0  0  0  0  0
    2.0000   -3.5000    0.0000 C   0  0  0  0  0  0  0  0  0  0  0  0
  1 11  1  0  0  0  0
  1 14  1  0  0  0  0
  2 12  1  0  0  0  0
  2 13  1  0  0  0  0
  3 12  2  0  0  0  0
  4 11  2  0  0  0  0
  5  9  1  0  0  0  0
  5 10  1  0  0  0  0
  5 12  1  0  0  0  0
  6  7  1  0  0  0  0
  6  8  1  0  0  0  0
  6 11  1  0  0  0  0
  7  9  1  0  0  0  0
  8 10  1  0  0  0  0
M  END
> <PUBCHEM_COMPOUND_CID>
7198

> <PUBCHEM_COMPOUND_CANONICALIZED>
1

> <PUBCHEM_CACTVS_COMPLEXITY>
192

> <PUBCHEM_CACTVS_HBOND_ACCEPTOR>
4

> <PUBCHEM_CACTVS_HBOND_DONOR>
0

> <PUBCHEM_CACTVS_ROTATABLE_BOND>
4

> <PUBCHEM_CACTVS_SUBSKEYS>
AAADceBwOAAAAAAAAAAAAAAAAAAAAAAAAAAwAAAAAAAAAAAAAAAAGgAAAAAADQCAgAICCAAABAAIAACQCAAAAAAAAAAAAAEAAAAAABIAAAAAAAAEAAAAAAGIyDCOAAAAAAAAAACAAAAAAAAAAAAAAAAAAA==

> <PUBCHEM_IUPAC_OPENEYE_NAME>
dimethyl cyclohexane-1,4-dicarboxylate

> <PUBCHEM_IUPAC_CAS_NAME>
cyclohexane-1,4-dicarboxylic acid dimethyl ester

> <PUBCHEM_IUPAC_NAME>
dimethyl cyclohexane-1,4-dicarboxylate

> <PUBCHEM_IUPAC_SYSTEMATIC_NAME>
dimethyl cyclohexane-1,4-dicarboxylate

> <PUBCHEM_IUPAC_TRADITIONAL_NAME>
cyclohexane-1,4-dicarboxylic acid dimethyl ester

> <PUBCHEM_IUPAC_INCHI>
InChI=1S/C10H16O4/c1-13-9(11)7-3-5-8(6-4-7)10(12)14-2/h7-8H,3-6H2,1-2H3

> <PUBCHEM_IUPAC_INCHIKEY>
LNGAGQAGYITKCW-UHFFFAOYSA-N

> <PUBCHEM_XLOGP3_AA>
1.1

> <PUBCHEM_EXACT_MASS>
200.105

> <PUBCHEM_MOLECULAR_FORMULA>
C10H16O4

> <PUBCHEM_MOLECULAR_WEIGHT>
200.234

> <PUBCHEM_OPENEYE_CAN_SMILES>
COC(=O)C1CCC(CC1)C(=O)OC

> <PUBCHEM_OPENEYE_ISO_SMILES>
COC(=O)C1CCC(CC1)C(=O)OC

> <PUBCHEM_CACTVS_TPSA>
52.6

> <PUBCHEM_MONOISOTOPIC_WEIGHT>
200.105

> <PUBCHEM_TOTAL_CHARGE>
0

> <PUBCHEM_HEAVY_ATOM_COUNT>
14

> <PUBCHEM_ATOM_DEF_STEREO_COUNT>
0

> <PUBCHEM_ATOM_UDEF_STEREO_COUNT>
0

> <PUBCHEM_BOND_DEF_STEREO_COUNT>
0

> <PUBCHEM_BOND_UDEF_STEREO_COUNT>
0

> <PUBCHEM_ISOTOPIC_ATOM_COUNT>
0

> <PUBCHEM_COMPONENT_COUNT>
1

> <PUBCHEM_CACTVS_TAUTO_COUNT>
-1

> <PUBCHEM_COORDINATE_TYPE>
1
5
255

$$$$
91692850
  -OEChem-02061914552D

 23 24  0     1  0  0  0  0  0999 V2000
    5.8671    0.7306    0.0000 O   0  0  0  0  0  0  0  0  0  0  0  0
    6.8671   -0.2694    0.0000 O   0  0  0  0  0  0  0  0  0  0  0  0
    5.1350   -0.2694    0.0000 O   0  0  0  0  0  0  0  0  0  0  0  0
    8.1271    1.9906    0.0000 O   0  0  0  0  0  0  0  0  0  0  0  0
    6.3671    3.2694    0.0000 O   0  0  0  0  0  0  0  0  0  0  0  0
    6.8671   -2.2694    0.0000 O   0  0  0  0  0  0  0  0  0  0  0  0
    5.1350   -3.2694    0.0000 O   0  0  0  0  0  0  0  0  0  0  0  0
    3.4030   -2.2694    0.0000 O   0  0  0  0  0  0  0  0  0  0  0  0
    8.5613    1.0907    0.0000 O   0  0  0  0  0  0  0  0  0  0  0  0
    4.3991    2.9688    0.0000 O   0  0  0  0  0  0  0  0  0  0  0  0
    2.5369   -0.7694    0.0000 O   0  0  0  0  0  0  0  0  0  0  0  0
    6.8671    0.7306    0.0000 C   0  0  3  0  0  0  0  0  0  0  0  0
    7.1761    1.6816    0.0000 C   0  0  3  0  0  0  0  0  0  0  0  0
    6.3671    2.2694    0.0000 C   0  0  3  0  0  0  0  0  0  0  0  0
    5.5580    1.6816    0.0000 C   0  0  3  0  0  0  0  0  0  0  0  0
    6.0010   -0.7694    0.0000 C   0  0  1  0  0  0  0  0  0  0  0  0
    6.0010   -1.7694    0.0000 C   0  0  1  0  0  0  0  0  0  0  0  0
    5.1350   -2.2694    0.0000 C   0  0  2  0  0  0  0  0  0  0  0  0
    4.2690   -1.7694    0.0000 C   0  0  1  0  0  0  0  0  0  0  0  0
    4.2690   -0.7694    0.0000 C   0  0  1  0  0  0  0  0  0  0  0  0
    7.8181    0.4216    0.0000 C   0  0  0  0  0  0  0  0  0  0  0  0
    4.6070    1.9906    0.0000 C   0  0  0  0  0  0  0  0  0  0  0  0
    3.4030   -0.2694    0.0000 C   0  0  0  0  0  0  0  0  0  0  0  0
  1 12  1  0  0  0  0
  1 15  1  0  0  0  0
  2 12  1  0  0  0  0
 16  2  1  6  0  0  0
  3 16  1  0  0  0  0
  3 20  1  0  0  0  0
  4 13  1  0  0  0  0
  5 14  1  0  0  0  0
 17  6  1  6  0  0  0
 18  7  1  1  0  0  0
 19  8  1  6  0  0  0
  9 21  1  0  0  0  0
 10 22  1  0  0  0  0
 11 23  1  0  0  0  0
 12 13  1  0  0  0  0
 12 21  1  0  0  0  0
 13 14  1  0  0  0  0
 14 15  1  0  0  0  0
 15 22  1  0  0  0  0
 16 17  1  0  0  0  0
 17 18  1  0  0  0  0
 18 19  1  0  0  0  0
 19 20  1  0  0  0  0
 20 23  1  1  0  0  0
M  END
> <PUBCHEM_COMPOUND_CID>
91692850

> <PUBCHEM_COMPOUND_CANONICALIZED>
1

> <PUBCHEM_CACTVS_COMPLEXITY>
395

> <PUBCHEM_CACTVS_HBOND_ACCEPTOR>
11

> <PUBCHEM_CACTVS_HBOND_DONOR>
8

> <PUBCHEM_CACTVS_ROTATABLE_BOND>
5

> <PUBCHEM_CACTVS_SUBSKEYS>
AAADceBwPAAAAAAAAAAAAAAAAAAAASAAAAAkAAAAAAAAAAAAAAAAGgAACAAACBSwgAMACAAABgAAAAAAAAAAAAAAAAAAAAAAAAAREAIAAAAiQAAFAAAHAAHAYAwAAAAAAAAAAAAAAAAAAAAAAAAAAAAAAA==

> <PUBCHEM_IUPAC_OPENEYE_NAME>
(2~{R},3~{R},4~{S},5~{S},6~{R})-2-[3,4-dihydroxy-2,5-bis(hydroxymethyl)tetrahydrofuran-2-yl]oxy-6-(hydroxymethyl)tetrahydropyran-3,4,5-triol

> <PUBCHEM_IUPAC_CAS_NAME>
(2~{R},3~{R},4~{S},5~{S},6~{R})-2-[[3,4-dihydroxy-2,5-bis(hydroxymethyl)-2-oxolanyl]oxy]-6-(hydroxymethyl)oxane-3,4,5-triol

> <PUBCHEM_IUPAC_NAME>
(2~{R},3~{R},4~{S},5~{S},6~{R})-2-[3,4-dihydroxy-2,5-bis(hydroxymethyl)oxolan-2-yl]oxy-6-(hydroxymethyl)oxane-3,4,5-triol

> <PUBCHEM_IUPAC_SYSTEMATIC_NAME>
(2~{R},3~{R},4~{S},5~{S},6~{R})-2-[2,5-bis(hydroxymethyl)-3,4-bis(oxidanyl)oxolan-2-yl]oxy-6-(hydroxymethyl)oxane-3,4,5-triol

> <PUBCHEM_IUPAC_TRADITIONAL_NAME>
(2~{R},3~{R},4~{S},5~{S},6~{R})-2-(3,4-dihydroxy-2,5-dimethylol-tetrahydrofuran-2-yl)oxy-6-methylol-tetrahydropyran-3,4,5-triol

> <PUBCHEM_IUPAC_INCHI>
InChI=1S/C12H22O11/c13-1-4-6(16)8(18)9(19)11(21-4)23-12(3-15)10(20)7(17)5(2-14)22-12/h4-11,13-20H,1-3H2/t4-,5?,6-,7?,8+,9-,10?,11-,12?/m1/s1

> <PUBCHEM_IUPAC_INCHIKEY>
CZMRCDWAGMRECN-GCGUNJLOSA-N

> <PUBCHEM_XLOGP3>
-3.7

> <PUBCHEM_EXACT_MASS>
342.116

> <PUBCHEM_MOLECULAR_FORMULA>
C12H22O11

> <PUBCHEM_MOLECULAR_WEIGHT>
342.297

> <PUBCHEM_OPENEYE_CAN_SMILES>
C(C1C(C(C(C(O1)OC2(C(C(C(O2)CO)O)O)CO)O)O)O)O

> <PUBCHEM_OPENEYE_ISO_SMILES>
C([C@@H]1[C@H]([C@@H]([C@H]([C@H](O1)OC2(C(C(C(O2)CO)O)O)CO)O)O)O)O

> <PUBCHEM_CACTVS_TPSA>
190

> <PUBCHEM_MONOISOTOPIC_WEIGHT>
342.116

> <PUBCHEM_TOTAL_CHARGE>
0

> <PUBCHEM_HEAVY_ATOM_COUNT>
23

> <PUBCHEM_ATOM_DEF_STEREO_COUNT>
5

> <PUBCHEM_ATOM_UDEF_STEREO_COUNT>
4

> <PUBCHEM_BOND_DEF_STEREO_COUNT>
0

> <PUBCHEM_BOND_UDEF_STEREO_COUNT>
0

> <PUBCHEM_ISOTOPIC_ATOM_COUNT>
0

> <PUBCHEM_COMPONENT_COUNT>
1

> <PUBCHEM_CACTVS_TAUTO_COUNT>
-1

> <PUBCHEM_COORDINATE_TYPE>
1
5
255

> <PUBCHEM_BONDANNOTATIONS>
12  21  3
15  22  3
16  2  6
20  23  5
13  4  3
14  5  3
17  6  6
18  7  5
19  8  6

$$$$
7519
  -OEChem-02061913072D

  8  8  0     0  0  0  0  0  0999 V2000
    2.8660    1.2500    0.0000 O   0  0  0  0  0  0  0  0  0  0  0  0
    2.8660    0.2500    0.0000 C   0  0  0  0  0  0  0  0  0  0  0  0
    2.0000   -0.2500    0.0000 C   0  0  0  0  0  0  0  0  0  0  0  0
    3.7320   -0.2500    0.0000 C   0  0  0  0  0  0  0  0  0  0  0  0
    2.0000   -1.2500    0.0000 C   0  0  0  0  0  0  0  0  0  0  0  0
    3.7320   -1.2500    0.0000 C   0  0  0  0  0  0  0  0  0  0  0  0
    2.8660   -1.7500    0.0000 C   0  0  0  0  0  0  0  0  0  0  0  0
    3.7320    1.7500    0.0000 C   0  0  0  0  0  0  0  0  0  0  0  0
  1  2  1  0  0  0  0
  1  8  1  0  0  0  0
  2  3  2  0  0  0  0
  2  4  1  0  0  0  0
  3  5  1  0  0  0  0
  4  6  2  0  0  0  0
  5  7  2  0  0  0  0
  6  7  1  0  0  0  0
M  END
> <PUBCHEM_COMPOUND_CID>
7519

> <PUBCHEM_COMPOUND_CANONICALIZED>
1

> <PUBCHEM_CACTVS_COMPLEXITY>
55.4

> <PUBCHEM_CACTVS_HBOND_ACCEPTOR>
1

> <PUBCHEM_CACTVS_HBOND_DONOR>
0

> <PUBCHEM_CACTVS_ROTATABLE_BOND>
1

> <PUBCHEM_CACTVS_SUBSKEYS>
AAADccBgIAAAAAAAAAAAAAAAAAAAAAAAAAAwAAAAAAAAAAABAAAAGgAAAAAACASAkAIyBoAABACAACBCAAACCAAgIAAIiAAGCIgMJiKEMRqAMCAkwBEIqAeAQAAAAAAAAAAAAAAAAAAAAAAAAAAAAAAAAA==

> <PUBCHEM_IUPAC_OPENEYE_NAME>
anisole

> <PUBCHEM_IUPAC_CAS_NAME>
methoxybenzene

> <PUBCHEM_IUPAC_NAME>
anisole

> <PUBCHEM_IUPAC_SYSTEMATIC_NAME>
methoxybenzene

> <PUBCHEM_IUPAC_TRADITIONAL_NAME>
anisole

> <PUBCHEM_IUPAC_INCHI>
InChI=1S/C7H8O/c1-8-7-5-3-2-4-6-7/h2-6H,1H3

> <PUBCHEM_IUPAC_INCHIKEY>
RDOXTESZEPMUJZ-UHFFFAOYSA-N

> <PUBCHEM_XLOGP3>
2.1

> <PUBCHEM_EXACT_MASS>
108.058

> <PUBCHEM_MOLECULAR_FORMULA>
C7H8O

> <PUBCHEM_MOLECULAR_WEIGHT>
108.14

> <PUBCHEM_OPENEYE_CAN_SMILES>
COC1=CC=CC=C1

> <PUBCHEM_OPENEYE_ISO_SMILES>
COC1=CC=CC=C1

> <PUBCHEM_CACTVS_TPSA>
9.2

> <PUBCHEM_MONOISOTOPIC_WEIGHT>
108.058

> <PUBCHEM_TOTAL_CHARGE>
0

> <PUBCHEM_HEAVY_ATOM_COUNT>
8

> <PUBCHEM_ATOM_DEF_STEREO_COUNT>
0

> <PUBCHEM_ATOM_UDEF_STEREO_COUNT>
0

> <PUBCHEM_BOND_DEF_STEREO_COUNT>
0

> <PUBCHEM_BOND_UDEF_STEREO_COUNT>
0

> <PUBCHEM_ISOTOPIC_ATOM_COUNT>
0

> <PUBCHEM_COMPONENT_COUNT>
1

> <PUBCHEM_CACTVS_TAUTO_COUNT>
-1

> <PUBCHEM_COORDINATE_TYPE>
1
5
255

> <PUBCHEM_BONDANNOTATIONS>
2  3  8
2  4  8
3  5  8
4  6  8
5  7  8
6  7  8

$$$$
3026
  -OEChem-02061913062D

 20 20  0     0  0  0  0  0  0999 V2000
    5.4641   -1.7500    0.0000 O   0  0  0  0  0  0  0  0  0  0  0  0
    8.9282    0.2500    0.0000 O   0  0  0  0  0  0  0  0  0  0  0  0
    6.3301   -0.2500    0.0000 O   0  0  0  0  0  0  0  0  0  0  0  0
    7.1962    0.2500    0.0000 O   0  0  0  0  0  0  0  0  0  0  0  0
    9.7942    1.7500    0.0000 C   0  0  0  0  0  0  0  0  0  0  0  0
    3.7320   -1.7500    0.0000 C   0  0  0  0  0  0  0  0  0  0  0  0
    9.7942    2.7500    0.0000 C   0  0  0  0  0  0  0  0  0  0  0  0
    2.8660   -1.2500    0.0000 C   0  0  0  0  0  0  0  0  0  0  0  0
    8.9282    1.2500    0.0000 C   0  0  0  0  0  0  0  0  0  0  0  0
    4.5981   -1.2500    0.0000 C   0  0  0  0  0  0  0  0  0  0  0  0
    8.0622   -1.2500    0.0000 C   0  0  0  0  0  0  0  0  0  0  0  0
    7.1962   -1.7500    0.0000 C   0  0  0  0  0  0  0  0  0  0  0  0
    2.0000   -1.7500    0.0000 C   0  0  0  0  0  0  0  0  0  0  0  0
   10.6603    3.2500    0.0000 C   0  0  0  0  0  0  0  0  0  0  0  0
    6.3301   -1.2500    0.0000 C   0  0  0  0  0  0  0  0  0  0  0  0
    8.0622   -0.2500    0.0000 C   0  0  0  0  0  0  0  0  0  0  0  0
    7.1962   -2.7500    0.0000 C   0  0  0  0  0  0  0  0  0  0  0  0
    8.9282   -1.7500    0.0000 C   0  0  0  0  0  0  0  0  0  0  0  0
    8.0622   -3.2500    0.0000 C   0  0  0  0  0  0  0  0  0  0  0  0
    8.9282   -2.7500    0.0000 C   0  0  0  0  0  0  0  0  0  0  0  0
  1 10  1  0  0  0  0
  1 15  1  0  0  0  0
  2  9  1  0  0  0  0
  2 16  1  0  0  0  0
  3 15  2  0  0  0  0
  4 16  2  0  0  0  0
  5  7  1  0  0  0  0
  5  9  1  0  0  0  0
  6  8  1  0  0  0  0
  6 10  1  0  0  0  0
  7 14  1  0  0  0  0
  8 13  1  0  0  0  0
 11 12  1  0  0  0  0
 11 16  1  0  0  0  0
 11 18  2  0  0  0  0
 12 15  1  0  0  0  0
 12 17  2  0  0  0  0
 17 19  1  0  0  0  0
 18 20  1  0  0  0  0
 19 20  2  0  0  0  0
M  END
> <PUBCHEM_COMPOUND_CID>
3026

> <PUBCHEM_COMPOUND_CANONICALIZED>
1

> <PUBCHEM_CACTVS_COMPLEXITY>
271

> <PUBCHEM_CACTVS_HBOND_ACCEPTOR>
4

> <PUBCHEM_CACTVS_HBOND_DONOR>
0

> <PUBCHEM_CACTVS_ROTATABLE_BOND>
10

> <PUBCHEM_CACTVS_SUBSKEYS>
AAADceB4OAAAAAAAAAAAAAAAAAAAAAAAAAAwAAAAAAAAAAABAAAAGgAAAAAADACgmAIyCIAABACIAiDSCAACAAAkAAAIiAEACMgIJjKANRiCMQAkwAEIqYfLyKCOgAAAAAAQAAAAAAAAACAAAAAAAAAAAA==

> <PUBCHEM_IUPAC_OPENEYE_NAME>
dibutyl benzene-1,2-dicarboxylate

> <PUBCHEM_IUPAC_CAS_NAME>
benzene-1,2-dicarboxylic acid dibutyl ester

> <PUBCHEM_IUPAC_NAME>
dibutyl benzene-1,2-dicarboxylate

> <PUBCHEM_IUPAC_SYSTEMATIC_NAME>
dibutyl benzene-1,2-dicarboxylate

> <PUBCHEM_IUPAC_TRADITIONAL_NAME>
benzene-1,2-dicarboxylic acid dibutyl ester

> <PUBCHEM_IUPAC_INCHI>
InChI=1S/C16H22O4/c1-3-5-11-19-15(17)13-9-7-8-10-14(13)16(18)20-12-6-4-2/h7-10H,3-6,11-12H2,1-2H3

> <PUBCHEM_IUPAC_INCHIKEY>
DOIRQSBPFJWKBE-UHFFFAOYSA-N

> <PUBCHEM_XLOGP3>
4.7

> <PUBCHEM_EXACT_MASS>
278.152

> <PUBCHEM_MOLECULAR_FORMULA>
C16H22O4

> <PUBCHEM_MOLECULAR_WEIGHT>
278.348

> <PUBCHEM_OPENEYE_CAN_SMILES>
CCCCOC(=O)C1=CC=CC=C1C(=O)OCCCC

> <PUBCHEM_OPENEYE_ISO_SMILES>
CCCCOC(=O)C1=CC=CC=C1C(=O)OCCCC

> <PUBCHEM_CACTVS_TPSA>
52.6

> <PUBCHEM_MONOISOTOPIC_WEIGHT>
278.152

> <PUBCHEM_TOTAL_CHARGE>
0

> <PUBCHEM_HEAVY_ATOM_COUNT>
20

> <PUBCHEM_ATOM_DEF_STEREO_COUNT>
0

> <PUBCHEM_ATOM_UDEF_STEREO_COUNT>
0

> <PUBCHEM_BOND_DEF_STEREO_COUNT>
0

> <PUBCHEM_BOND_UDEF_STEREO_COUNT>
0

> <PUBCHEM_ISOTOPIC_ATOM_COUNT>
0

> <PUBCHEM_COMPONENT_COUNT>
1

> <PUBCHEM_CACTVS_TAUTO_COUNT>
-1

> <PUBCHEM_COORDINATE_TYPE>
1
5
255

> <PUBCHEM_BONDANNOTATIONS>
11  12  8
11  18  8
12  17  8
17  19  8
18  20  8
19  20  8

$$$$
10290825
  -OEChem-02061913482D

 10 11  0     1  0  0  0  0  0999 V2000
    2.4736   -0.0329    0.0000 C   0  0  0  0  0  0  0  0  0  0  0  0
    3.6137    0.9242    0.0000 C   0  0  1  0  0  0  0  0  0  0  0  0
    3.8725   -0.0417    0.0000 C   0  0  2  0  0  0  0  0  0  0  0  0
    4.3503    1.9068    0.0000 C   0  0  0  0  0  0  0  0  0  0  0  0
    5.6469    0.6130    0.0000 C   0  0  0  0  0  0  0  0  0  0  0  0
    5.0935   -0.9074    0.0000 C   0  0  0  0  0  0  0  0  0  0  0  0
    5.9226   -0.3482    0.0000 C   0  0  0  0  0  0  0  0  0  0  0  0
    1.6075    0.4671    0.0000 C   0  0  0  0  0  0  0  0  0  0  0  0
    1.9736   -0.8990    0.0000 C   0  0  0  0  0  0  0  0  0  0  0  0
    5.0586   -1.9068    0.0000 C   0  0  0  0  0  0  0  0  0  0  0  0
  1  2  1  0  0  0  0
  1  3  1  0  0  0  0
  1  8  1  0  0  0  0
  1  9  1  0  0  0  0
  2  4  1  0  0  0  0
  2  5  1  0  0  0  0
  3  4  1  0  0  0  0
  3  6  1  0  0  0  0
  5  7  1  0  0  0  0
  6  7  1  0  0  0  0
  6 10  2  0  0  0  0
M  END
> <PUBCHEM_COMPOUND_CID>
10290825

> <PUBCHEM_COMPOUND_CANONICALIZED>
1

> <PUBCHEM_CACTVS_COMPLEXITY>
177

> <PUBCHEM_CACTVS_HBOND_ACCEPTOR>
0

> <PUBCHEM_CACTVS_HBOND_DONOR>
0

> <PUBCHEM_CACTVS_ROTATABLE_BOND>
0

> <PUBCHEM_CACTVS_SUBSKEYS>
AAADceBwAAAAAAAAAAAAAAAAAABgAAAAAAAwYAAAAAAAAAAAAAAAGAAAAAAADwCAAAACAAAAAACAAgBCAAAAAAAgAAAAAAAAAAgAAAIAAQAAAAAAgAAAAAEAgMAPgAAAAAAAAAAAAAAAACAAAAAAAAAAAA==

> <PUBCHEM_IUPAC_OPENEYE_NAME>
(1~{R},5~{R})-6,6-dimethyl-2-methylene-norpinane

> <PUBCHEM_IUPAC_CAS_NAME>
(1~{R},5~{R})-6,6-dimethyl-2-methylenebicyclo[3.1.1]heptane

> <PUBCHEM_IUPAC_NAME>
(1~{R},5~{R})-6,6-dimethyl-2-methylidenebicyclo[3.1.1]heptane

> <PUBCHEM_IUPAC_SYSTEMATIC_NAME>
(1~{R},5~{R})-6,6-dimethyl-2-methylidene-bicyclo[3.1.1]heptane

> <PUBCHEM_IUPAC_TRADITIONAL_NAME>
(1~{R},5~{R})-6,6-dimethyl-2-methylene-norpinane

> <PUBCHEM_IUPAC_INCHI>
InChI=1S/C10H16/c1-7-4-5-8-6-9(7)10(8,2)3/h8-9H,1,4-6H2,2-3H3/t8-,9-/m1/s1

> <PUBCHEM_IUPAC_INCHIKEY>
WTARULDDTDQWMU-RKDXNWHRSA-N

> <PUBCHEM_XLOGP3_AA>
3.1

> <PUBCHEM_EXACT_MASS>
136.125

> <PUBCHEM_MOLECULAR_FORMULA>
C10H16

> <PUBCHEM_MOLECULAR_WEIGHT>
136.238

> <PUBCHEM_OPENEYE_CAN_SMILES>
CC1(C2CCC(=C)C1C2)C

> <PUBCHEM_OPENEYE_ISO_SMILES>
CC1([C@@H]2CCC(=C)[C@H]1C2)C

> <PUBCHEM_CACTVS_TPSA>
0

> <PUBCHEM_MONOISOTOPIC_WEIGHT>
136.125

> <PUBCHEM_TOTAL_CHARGE>
0

> <PUBCHEM_HEAVY_ATOM_COUNT>
10

> <PUBCHEM_ATOM_DEF_STEREO_COUNT>
2

> <PUBCHEM_ATOM_UDEF_STEREO_COUNT>
0

> <PUBCHEM_BOND_DEF_STEREO_COUNT>
0

> <PUBCHEM_BOND_UDEF_STEREO_COUNT>
0

> <PUBCHEM_ISOTOPIC_ATOM_COUNT>
0

> <PUBCHEM_COMPONENT_COUNT>
1

> <PUBCHEM_CACTVS_TAUTO_COUNT>
-1

> <PUBCHEM_COORDINATE_TYPE>
1
5
255

> <PUBCHEM_BONDANNOTATIONS>
2  11  6
3  12  5

$$$$
7047
  -OEChem-02061913072D

 10 11  0     0  0  0  0  0  0999 V2000
    4.6660   -1.0000    0.0000 N   0  0  0  0  0  0  0  0  0  0  0  0
    3.8000    0.5000    0.0000 C   0  0  0  0  0  0  0  0  0  0  0  0
    3.8000   -0.5000    0.0000 C   0  0  0  0  0  0  0  0  0  0  0  0
    2.9061    1.0347    0.0000 C   0  0  0  0  0  0  0  0  0  0  0  0
    4.6660    1.0000    0.0000 C   0  0  0  0  0  0  0  0  0  0  0  0
    2.9061   -1.0347    0.0000 C   0  0  0  0  0  0  0  0  0  0  0  0
    2.0000    0.5208    0.0000 C   0  0  0  0  0  0  0  0  0  0  0  0
    2.0000   -0.5208    0.0000 C   0  0  0  0  0  0  0  0  0  0  0  0
    5.5321    0.5000    0.0000 C   0  0  0  0  0  0  0  0  0  0  0  0
    5.5321   -0.5000    0.0000 C   0  0  0  0  0  0  0  0  0  0  0  0
  1  3  1  0  0  0  0
  1 10  2  0  0  0  0
  2  3  1  0  0  0  0
  2  4  2  0  0  0  0
  2  5  1  0  0  0  0
  3  6  2  0  0  0  0
  4  7  1  0  0  0  0
  5  9  2  0  0  0  0
  6  8  1  0  0  0  0
  7  8  2  0  0  0  0
  9 10  1  0  0  0  0
M  END
> <PUBCHEM_COMPOUND_CID>
7047

> <PUBCHEM_COMPOUND_CANONICALIZED>
1

> <PUBCHEM_CACTVS_COMPLEXITY>
111

> <PUBCHEM_CACTVS_HBOND_ACCEPTOR>
1

> <PUBCHEM_CACTVS_HBOND_DONOR>
0

> <PUBCHEM_CACTVS_ROTATABLE_BOND>
0

> <PUBCHEM_CACTVS_SUBSKEYS>
AAADcYByAAAAAAAAAAAAAAAAAAAAAAAAAAA8QAAAAAAAAACx8AAAHAAAAAAADAjBHgQ8wPIIEACgAzRnRACCgCAxAiAI2CA4ZJgIIOLAkZGEIAhggADIyAcQgIAOAAAAAAACAAAAAAAAAAQAAAAAAAAAAA==

> <PUBCHEM_IUPAC_OPENEYE_NAME>
quinoline

> <PUBCHEM_IUPAC_CAS_NAME>
quinoline

> <PUBCHEM_IUPAC_NAME>
quinoline

> <PUBCHEM_IUPAC_SYSTEMATIC_NAME>
quinoline

> <PUBCHEM_IUPAC_TRADITIONAL_NAME>
quinoline

> <PUBCHEM_IUPAC_INCHI>
InChI=1S/C9H7N/c1-2-6-9-8(4-1)5-3-7-10-9/h1-7H

> <PUBCHEM_IUPAC_INCHIKEY>
SMWDFEZZVXVKRB-UHFFFAOYSA-N

> <PUBCHEM_XLOGP3>
2

> <PUBCHEM_EXACT_MASS>
129.058

> <PUBCHEM_MOLECULAR_FORMULA>
C9H7N

> <PUBCHEM_MOLECULAR_WEIGHT>
129.162

> <PUBCHEM_OPENEYE_CAN_SMILES>
C1=CC=C2C(=C1)C=CC=N2

> <PUBCHEM_OPENEYE_ISO_SMILES>
C1=CC=C2C(=C1)C=CC=N2

> <PUBCHEM_CACTVS_TPSA>
12.9

> <PUBCHEM_MONOISOTOPIC_WEIGHT>
129.058

> <PUBCHEM_TOTAL_CHARGE>
0

> <PUBCHEM_HEAVY_ATOM_COUNT>
10

> <PUBCHEM_ATOM_DEF_STEREO_COUNT>
0

> <PUBCHEM_ATOM_UDEF_STEREO_COUNT>
0

> <PUBCHEM_BOND_DEF_STEREO_COUNT>
0

> <PUBCHEM_BOND_UDEF_STEREO_COUNT>
0

> <PUBCHEM_ISOTOPIC_ATOM_COUNT>
0

> <PUBCHEM_COMPONENT_COUNT>
1

> <PUBCHEM_CACTVS_TAUTO_COUNT>
-1

> <PUBCHEM_COORDINATE_TYPE>
1
5
255

> <PUBCHEM_BONDANNOTATIONS>
1  10  8
1  3  8
2  3  8
2  4  8
2  5  8
3  6  8
4  7  8
5  9  8
6  8  8
7  8  8
9  10  8

$$$$
995
  -OEChem-02061913062D

 14 16  0     0  0  0  0  0  0999 V2000
    3.8000   -0.2673    0.0000 C   0  0  0  0  0  0  0  0  0  0  0  0
    4.6660    0.2327    0.0000 C   0  0  0  0  0  0  0  0  0  0  0  0
    5.5321   -0.2673    0.0000 C   0  0  0  0  0  0  0  0  0  0  0  0
    3.8000   -1.2673    0.0000 C   0  0  0  0  0  0  0  0  0  0  0  0
    5.5321   -1.2673    0.0000 C   0  0  0  0  0  0  0  0  0  0  0  0
    4.6660   -1.7673    0.0000 C   0  0  0  0  0  0  0  0  0  0  0  0
    4.6500    1.2742    0.0000 C   0  0  0  0  0  0  0  0  0  0  0  0
    2.9061    0.2674    0.0000 C   0  0  0  0  0  0  0  0  0  0  0  0
    6.4421    0.2395    0.0000 C   0  0  0  0  0  0  0  0  0  0  0  0
    2.9061   -1.8020    0.0000 C   0  0  0  0  0  0  0  0  0  0  0  0
    5.5480    1.8020    0.0000 C   0  0  0  0  0  0  0  0  0  0  0  0
    2.0000   -0.2465    0.0000 C   0  0  0  0  0  0  0  0  0  0  0  0
    2.0000   -1.2881    0.0000 C   0  0  0  0  0  0  0  0  0  0  0  0
    6.4501    1.2812    0.0000 C   0  0  0  0  0  0  0  0  0  0  0  0
  1  2  1  0  0  0  0
  1  4  1  0  0  0  0
  1  8  2  0  0  0  0
  2  3  1  0  0  0  0
  2  7  2  0  0  0  0
  3  5  1  0  0  0  0
  3  9  2  0  0  0  0
  4  6  1  0  0  0  0
  4 10  2  0  0  0  0
  5  6  2  0  0  0  0
  7 11  1  0  0  0  0
  8 12  1  0  0  0  0
  9 14  1  0  0  0  0
 10 13  1  0  0  0  0
 11 14  2  0  0  0  0
 12 13  2  0  0  0  0
M  END
> <PUBCHEM_COMPOUND_CID>
995

> <PUBCHEM_COMPOUND_CANONICALIZED>
1

> <PUBCHEM_CACTVS_COMPLEXITY>
174

> <PUBCHEM_CACTVS_HBOND_ACCEPTOR>
0

> <PUBCHEM_CACTVS_HBOND_DONOR>
0

> <PUBCHEM_CACTVS_ROTATABLE_BOND>
0

> <PUBCHEM_CACTVS_SUBSKEYS>
AAADccBwAAAAAAAAAAAAAAAAAAAAAAAAAAAwYMAAAAAAAADBVAAAGAAAAAAADACAGAAwAMAAAACAAiBCAAACAAAgAAAIiAAAAIgIICKAERCAIAAggAAIiAcAgMAOwAACAAAQAACAAAQAACAAAAAAAAAAAA==

> <PUBCHEM_IUPAC_OPENEYE_NAME>
phenanthrene

> <PUBCHEM_IUPAC_CAS_NAME>
phenanthrene

> <PUBCHEM_IUPAC_NAME>
phenanthrene

> <PUBCHEM_IUPAC_SYSTEMATIC_NAME>
phenanthrene

> <PUBCHEM_IUPAC_TRADITIONAL_NAME>
phenanthrene

> <PUBCHEM_IUPAC_INCHI>
InChI=1S/C14H10/c1-3-7-13-11(5-1)9-10-12-6-2-4-8-14(12)13/h1-10H

> <PUBCHEM_IUPAC_INCHIKEY>
YNPNZTXNASCQKK-UHFFFAOYSA-N

> <PUBCHEM_XLOGP3>
4.5

> <PUBCHEM_EXACT_MASS>
178.078

> <PUBCHEM_MOLECULAR_FORMULA>
C14H10

> <PUBCHEM_MOLECULAR_WEIGHT>
178.234

> <PUBCHEM_OPENEYE_CAN_SMILES>
C1=CC=C2C(=C1)C=CC3=CC=CC=C32

> <PUBCHEM_OPENEYE_ISO_SMILES>
C1=CC=C2C(=C1)C=CC3=CC=CC=C32

> <PUBCHEM_CACTVS_TPSA>
0

> <PUBCHEM_MONOISOTOPIC_WEIGHT>
178.078

> <PUBCHEM_TOTAL_CHARGE>
0

> <PUBCHEM_HEAVY_ATOM_COUNT>
14

> <PUBCHEM_ATOM_DEF_STEREO_COUNT>
0

> <PUBCHEM_ATOM_UDEF_STEREO_COUNT>
0

> <PUBCHEM_BOND_DEF_STEREO_COUNT>
0

> <PUBCHEM_BOND_UDEF_STEREO_COUNT>
0

> <PUBCHEM_ISOTOPIC_ATOM_COUNT>
0

> <PUBCHEM_COMPONENT_COUNT>
1

> <PUBCHEM_CACTVS_TAUTO_COUNT>
-1

> <PUBCHEM_COORDINATE_TYPE>
1
5
255

> <PUBCHEM_BONDANNOTATIONS>
1  2  8
1  4  8
1  8  8
10  13  8
11  14  8
12  13  8
2  3  8
2  7  8
3  5  8
3  9  8
4  10  8
4  6  8
5  6  8
7  11  8
8  12  8
9  14  8

$$$$
13387
  -OEChem-02061913072D

  7  7  0     0  0  0  0  0  0999 V2000
    4.5691    0.0093    0.0000 O   0  0  0  0  0  0  0  0  0  0  0  0
    2.8090   -0.2694    0.0000 N   0  0  0  0  0  0  0  0  0  0  0  0
    2.3090    1.2694    0.0000 C   0  0  0  0  0  0  0  0  0  0  0  0
    2.0000    0.3184    0.0000 C   0  0  0  0  0  0  0  0  0  0  0  0
    3.3090    1.2694    0.0000 C   0  0  0  0  0  0  0  0  0  0  0  0
    3.6180    0.3184    0.0000 C   0  0  0  0  0  0  0  0  0  0  0  0
    2.8090   -1.2694    0.0000 C   0  0  0  0  0  0  0  0  0  0  0  0
  1  6  2  0  0  0  0
  2  4  1  0  0  0  0
  2  6  1  0  0  0  0
  2  7  1  0  0  0  0
  3  4  1  0  0  0  0
  3  5  1  0  0  0  0
  5  6  1  0  0  0  0
M  END
> <PUBCHEM_COMPOUND_CID>
13387

> <PUBCHEM_COMPOUND_CANONICALIZED>
1

> <PUBCHEM_CACTVS_COMPLEXITY>
90.1

> <PUBCHEM_CACTVS_HBOND_ACCEPTOR>
1

> <PUBCHEM_CACTVS_HBOND_DONOR>
0

> <PUBCHEM_CACTVS_ROTATABLE_BOND>
0

> <PUBCHEM_CACTVS_SUBSKEYS>
AAADccBiIAAAAAAAAAAAAAAAAAAAAWAAAAAAAAAAAAAAAAAAAAAAHgAAAAAACADBgAQCAAMAAAAIAAEQEAAAAAAAAAAAAAEIAAAAABAAgAAEAAAABgCAAAAEAAAAAAAAAAAAAAAAAAAAAAAAAAAAAAAAAA==

> <PUBCHEM_IUPAC_OPENEYE_NAME>
1-methylpyrrolidin-2-one

> <PUBCHEM_IUPAC_CAS_NAME>
1-methyl-2-pyrrolidinone

> <PUBCHEM_IUPAC_NAME>
1-methylpyrrolidin-2-one

> <PUBCHEM_IUPAC_SYSTEMATIC_NAME>
1-methylpyrrolidin-2-one

> <PUBCHEM_IUPAC_TRADITIONAL_NAME>
1-methyl-2-pyrrolidone

> <PUBCHEM_IUPAC_INCHI>
InChI=1S/C5H9NO/c1-6-4-2-3-5(6)7/h2-4H2,1H3

> <PUBCHEM_IUPAC_INCHIKEY>
SECXISVLQFMRJM-UHFFFAOYSA-N

> <PUBCHEM_XLOGP3>
-0.5

> <PUBCHEM_EXACT_MASS>
99.068

> <PUBCHEM_MOLECULAR_FORMULA>
C5H9NO

> <PUBCHEM_MOLECULAR_WEIGHT>
99.133

> <PUBCHEM_OPENEYE_CAN_SMILES>
CN1CCCC1=O

> <PUBCHEM_OPENEYE_ISO_SMILES>
CN1CCCC1=O

> <PUBCHEM_CACTVS_TPSA>
20.3

> <PUBCHEM_MONOISOTOPIC_WEIGHT>
99.068

> <PUBCHEM_TOTAL_CHARGE>
0

> <PUBCHEM_HEAVY_ATOM_COUNT>
7

> <PUBCHEM_ATOM_DEF_STEREO_COUNT>
0

> <PUBCHEM_ATOM_UDEF_STEREO_COUNT>
0

> <PUBCHEM_BOND_DEF_STEREO_COUNT>
0

> <PUBCHEM_BOND_UDEF_STEREO_COUNT>
0

> <PUBCHEM_ISOTOPIC_ATOM_COUNT>
0

> <PUBCHEM_COMPONENT_COUNT>
1

> <PUBCHEM_CACTVS_TAUTO_COUNT>
-1

> <PUBCHEM_COORDINATE_TYPE>
1
5
255

$$$$
7237
  -OEChem-02061913072D

  8  8  0     0  0  0  0  0  0999 V2000
    3.7320    0.5000    0.0000 C   0  0  0  0  0  0  0  0  0  0  0  0
    2.8660    0.0000    0.0000 C   0  0  0  0  0  0  0  0  0  0  0  0
    4.5981   -0.0000    0.0000 C   0  0  0  0  0  0  0  0  0  0  0  0
    2.8660   -1.0000    0.0000 C   0  0  0  0  0  0  0  0  0  0  0  0
    2.0000    0.5000    0.0000 C   0  0  0  0  0  0  0  0  0  0  0  0
    3.7320    1.5000    0.0000 C   0  0  0  0  0  0  0  0  0  0  0  0
    4.5981   -1.0000    0.0000 C   0  0  0  0  0  0  0  0  0  0  0  0
    3.7320   -1.5000    0.0000 C   0  0  0  0  0  0  0  0  0  0  0  0
  1  2  1  0  0  0  0
  1  3  2  0  0  0  0
  1  6  1  0  0  0  0
  2  4  2  0  0  0  0
  2  5  1  0  0  0  0
  3  7  1  0  0  0  0
  4  8  1  0  0  0  0
  7  8  2  0  0  0  0
M  END
> <PUBCHEM_COMPOUND_CID>
7237

> <PUBCHEM_COMPOUND_CANONICALIZED>
1

> <PUBCHEM_CACTVS_COMPLEXITY>
56.4

> <PUBCHEM_CACTVS_HBOND_ACCEPTOR>
0

> <PUBCHEM_CACTVS_HBOND_DONOR>
0

> <PUBCHEM_CACTVS_ROTATABLE_BOND>
0

> <PUBCHEM_CACTVS_SUBSKEYS>
AAADccBwAAAAAAAAAAAAAAAAAAAAAAAAAAAwAAAAAAAAAAABAAAAGAAAAAAADACAGAAyAIAAAACAAiBCAAACAAAgAAAIiAAAAIgIICKAERCAIAAggAAIiAcAgIAOgAAAAAAQAAAAAAAAACAAAAAAAAAAAA==

> <PUBCHEM_IUPAC_OPENEYE_NAME>
o-xylene

> <PUBCHEM_IUPAC_CAS_NAME>
1,2-xylene

> <PUBCHEM_IUPAC_NAME>
1,2-xylene

> <PUBCHEM_IUPAC_SYSTEMATIC_NAME>
1,2-dimethylbenzene

> <PUBCHEM_IUPAC_TRADITIONAL_NAME>
o-xylene

> <PUBCHEM_IUPAC_INCHI>
InChI=1S/C8H10/c1-7-5-3-4-6-8(7)2/h3-6H,1-2H3

> <PUBCHEM_IUPAC_INCHIKEY>
CTQNGGLPUBDAKN-UHFFFAOYSA-N

> <PUBCHEM_XLOGP3>
3.1

> <PUBCHEM_EXACT_MASS>
106.078

> <PUBCHEM_MOLECULAR_FORMULA>
C8H10

> <PUBCHEM_MOLECULAR_WEIGHT>
106.168

> <PUBCHEM_OPENEYE_CAN_SMILES>
CC1=CC=CC=C1C

> <PUBCHEM_OPENEYE_ISO_SMILES>
CC1=CC=CC=C1C

> <PUBCHEM_CACTVS_TPSA>
0

> <PUBCHEM_MONOISOTOPIC_WEIGHT>
106.078

> <PUBCHEM_TOTAL_CHARGE>
0

> <PUBCHEM_HEAVY_ATOM_COUNT>
8

> <PUBCHEM_ATOM_DEF_STEREO_COUNT>
0

> <PUBCHEM_ATOM_UDEF_STEREO_COUNT>
0

> <PUBCHEM_BOND_DEF_STEREO_COUNT>
0

> <PUBCHEM_BOND_UDEF_STEREO_COUNT>
0

> <PUBCHEM_ISOTOPIC_ATOM_COUNT>
0

> <PUBCHEM_COMPONENT_COUNT>
1

> <PUBCHEM_CACTVS_TAUTO_COUNT>
-1

> <PUBCHEM_COORDINATE_TYPE>
1
5
255

> <PUBCHEM_BONDANNOTATIONS>
1  2  8
1  3  8
2  4  8
3  7  8
4  8  8
7  8  8

$$$$
638088
  -OEChem-02061913102D

 14 15  0     0  0  0  0  0  0999 V2000
    2.8660   -1.2500    0.0000 C   0  0  0  0  0  0  0  0  0  0  0  0
    3.7320    1.2500    0.0000 C   0  0  0  0  0  0  0  0  0  0  0  0
    3.7320    0.2500    0.0000 C   0  0  0  0  0  0  0  0  0  0  0  0
    2.8660   -0.2500    0.0000 C   0  0  0  0  0  0  0  0  0  0  0  0
    4.5981    1.7500    0.0000 C   0  0  0  0  0  0  0  0  0  0  0  0
    2.0000   -1.7500    0.0000 C   0  0  0  0  0  0  0  0  0  0  0  0
    2.8660    1.7500    0.0000 C   0  0  0  0  0  0  0  0  0  0  0  0
    3.7320   -1.7500    0.0000 C   0  0  0  0  0  0  0  0  0  0  0  0
    4.5981    2.7500    0.0000 C   0  0  0  0  0  0  0  0  0  0  0  0
    2.0000   -2.7500    0.0000 C   0  0  0  0  0  0  0  0  0  0  0  0
    2.8660    2.7500    0.0000 C   0  0  0  0  0  0  0  0  0  0  0  0
    3.7320   -2.7500    0.0000 C   0  0  0  0  0  0  0  0  0  0  0  0
    2.8660   -3.2500    0.0000 C   0  0  0  0  0  0  0  0  0  0  0  0
    3.7320    3.2500    0.0000 C   0  0  0  0  0  0  0  0  0  0  0  0
  1  4  1  0  0  0  0
  1  6  2  0  0  0  0
  1  8  1  0  0  0  0
  2  3  1  0  0  0  0
  2  5  2  0  0  0  0
  2  7  1  0  0  0  0
  3  4  2  0  0  0  0
  5  9  1  0  0  0  0
  6 10  1  0  0  0  0
  7 11  2  0  0  0  0
  8 12  2  0  0  0  0
  9 14  2  0  0  0  0
 10 13  2  0  0  0  0
 11 14  1  0  0  0  0
 12 13  1  0  0  0  0
M  END
> <PUBCHEM_COMPOUND_CID>
638088

> <PUBCHEM_COMPOUND_CANONICALIZED>
1

> <PUBCHEM_CACTVS_COMPLEXITY>
149

> <PUBCHEM_CACTVS_HBOND_ACCEPTOR>
0

> <PUBCHEM_CACTVS_HBOND_DONOR>
0

> <PUBCHEM_CACTVS_ROTATABLE_BOND>
2

> <PUBCHEM_CACTVS_SUBSKEYS>
AAADccBwAAAAAAAAAAAAAAAAAAAAAAAAAAAwYAAAAAAAAAABQAAAGAAAAAAADACAGAAwAIAAAACAAiBCAAACAAAgAAAIiAAAAIgIICKAERCAIAAggAAIiAcAgAAOAAAAAAAAAAAAAAAAAAAAAAAAAAAAAA==

> <PUBCHEM_IUPAC_OPENEYE_NAME>
(E)-stilbene

> <PUBCHEM_IUPAC_CAS_NAME>
(E)-stilbene

> <PUBCHEM_IUPAC_NAME>
(E)-stilbene

> <PUBCHEM_IUPAC_SYSTEMATIC_NAME>
[(~{E})-2-phenylethenyl]benzene

> <PUBCHEM_IUPAC_TRADITIONAL_NAME>
(E)-stilbene

> <PUBCHEM_IUPAC_INCHI>
InChI=1S/C14H12/c1-3-7-13(8-4-1)11-12-14-9-5-2-6-10-14/h1-12H/b12-11+

> <PUBCHEM_IUPAC_INCHIKEY>
PJANXHGTPQOBST-VAWYXSNFSA-N

> <PUBCHEM_XLOGP3>
4.8

> <PUBCHEM_EXACT_MASS>
180.094

> <PUBCHEM_MOLECULAR_FORMULA>
C14H12

> <PUBCHEM_MOLECULAR_WEIGHT>
180.25

> <PUBCHEM_OPENEYE_CAN_SMILES>
C1=CC=C(C=C1)C=CC2=CC=CC=C2

> <PUBCHEM_OPENEYE_ISO_SMILES>
C1=CC=C(C=C1)/C=C/C2=CC=CC=C2

> <PUBCHEM_CACTVS_TPSA>
0

> <PUBCHEM_MONOISOTOPIC_WEIGHT>
180.094

> <PUBCHEM_TOTAL_CHARGE>
0

> <PUBCHEM_HEAVY_ATOM_COUNT>
14

> <PUBCHEM_ATOM_DEF_STEREO_COUNT>
0

> <PUBCHEM_ATOM_UDEF_STEREO_COUNT>
0

> <PUBCHEM_BOND_DEF_STEREO_COUNT>
1

> <PUBCHEM_BOND_UDEF_STEREO_COUNT>
0

> <PUBCHEM_ISOTOPIC_ATOM_COUNT>
0

> <PUBCHEM_COMPONENT_COUNT>
1

> <PUBCHEM_CACTVS_TAUTO_COUNT>
-1

> <PUBCHEM_COORDINATE_TYPE>
1
5
255

> <PUBCHEM_BONDANNOTATIONS>
1  6  8
1  8  8
10  13  8
11  14  8
12  13  8
2  5  8
2  7  8
5  9  8
6  10  8
7  11  8
8  12  8
9  14  8

$$$$
8082
  -OEChem-02061913072D

  6  6  0     0  0  0  0  0  0999 V2000
    2.8660   -0.6900    0.0000 N   0  0  0  0  0  0  0  0  0  0  0  0
    2.8660    1.3100    0.0000 C   0  0  0  0  0  0  0  0  0  0  0  0
    2.0000    0.8100    0.0000 C   0  0  0  0  0  0  0  0  0  0  0  0
    3.7320    0.8100    0.0000 C   0  0  0  0  0  0  0  0  0  0  0  0
    2.0000   -0.1900    0.0000 C   0  0  0  0  0  0  0  0  0  0  0  0
    3.7320   -0.1900    0.0000 C   0  0  0  0  0  0  0  0  0  0  0  0
  1  5  1  0  0  0  0
  1  6  1  0  0  0  0
  2  3  1  0  0  0  0
  2  4  1  0  0  0  0
  3  5  1  0  0  0  0
  4  6  1  0  0  0  0
M  END
> <PUBCHEM_COMPOUND_CID>
8082

> <PUBCHEM_COMPOUND_CANONICALIZED>
1

> <PUBCHEM_CACTVS_COMPLEXITY>
30.9

> <PUBCHEM_CACTVS_HBOND_ACCEPTOR>
1

> <PUBCHEM_CACTVS_HBOND_DONOR>
1

> <PUBCHEM_CACTVS_ROTATABLE_BOND>
0

> <PUBCHEM_CACTVS_SUBSKEYS>
AAADccBiAAAAAAAAAAAAAAAAAAAAAAAAAAAsAAAAAAAAAAAAAAAAHAAQAAAACADBAAQAAALAAAAAAAAAAAAAAAAAAAAAAIAIAAAAAAIAgAAEAAAAEACAAAAQAAAAAAAAAAAAAAAAAAAAAAAAAAAAAAAAAA==

> <PUBCHEM_IUPAC_OPENEYE_NAME>
piperidine

> <PUBCHEM_IUPAC_CAS_NAME>
piperidine

> <PUBCHEM_IUPAC_NAME>
piperidine

> <PUBCHEM_IUPAC_SYSTEMATIC_NAME>
piperidine

> <PUBCHEM_IUPAC_TRADITIONAL_NAME>
piperidine

> <PUBCHEM_IUPAC_INCHI>
InChI=1S/C5H11N/c1-2-4-6-5-3-1/h6H,1-5H2

> <PUBCHEM_IUPAC_INCHIKEY>
NQRYJNQNLNOLGT-UHFFFAOYSA-N

> <PUBCHEM_XLOGP3>
0.8

> <PUBCHEM_EXACT_MASS>
85.089

> <PUBCHEM_MOLECULAR_FORMULA>
C5H11N

> <PUBCHEM_MOLECULAR_WEIGHT>
85.15

> <PUBCHEM_OPENEYE_CAN_SMILES>
C1CCNCC1

> <PUBCHEM_OPENEYE_ISO_SMILES>
C1CCNCC1

> <PUBCHEM_CACTVS_TPSA>
12

> <PUBCHEM_MONOISOTOPIC_WEIGHT>
85.089

> <PUBCHEM_TOTAL_CHARGE>
0

> <PUBCHEM_HEAVY_ATOM_COUNT>
6

> <PUBCHEM_ATOM_DEF_STEREO_COUNT>
0

> <PUBCHEM_ATOM_UDEF_STEREO_COUNT>
0

> <PUBCHEM_BOND_DEF_STEREO_COUNT>
0

> <PUBCHEM_BOND_UDEF_STEREO_COUNT>
0

> <PUBCHEM_ISOTOPIC_ATOM_COUNT>
0

> <PUBCHEM_COMPONENT_COUNT>
1

> <PUBCHEM_CACTVS_TAUTO_COUNT>
-1

> <PUBCHEM_COORDINATE_TYPE>
1
5
255

$$$$
7362
  -OEChem-02061913072D

  7  7  0     0  0  0  0  0  0999 V2000
    2.8090   -0.4197    0.0000 O   0  0  0  0  0  0  0  0  0  0  0  0
    4.7770   -1.1191    0.0000 O   0  0  0  0  0  0  0  0  0  0  0  0
    3.6180    0.1681    0.0000 C   0  0  0  0  0  0  0  0  0  0  0  0
    3.3090    1.1191    0.0000 C   0  0  0  0  0  0  0  0  0  0  0  0
    2.3090    1.1191    0.0000 C   0  0  0  0  0  0  0  0  0  0  0  0
    2.0000    0.1681    0.0000 C   0  0  0  0  0  0  0  0  0  0  0  0
    4.5691   -0.1410    0.0000 C   0  0  0  0  0  0  0  0  0  0  0  0
  1  3  1  0  0  0  0
  1  6  1  0  0  0  0
  2  7  2  0  0  0  0
  3  4  2  0  0  0  0
  3  7  1  0  0  0  0
  4  5  1  0  0  0  0
  5  6  2  0  0  0  0
M  END
> <PUBCHEM_COMPOUND_CID>
7362

> <PUBCHEM_COMPOUND_CANONICALIZED>
1

> <PUBCHEM_CACTVS_COMPLEXITY>
70.5

> <PUBCHEM_CACTVS_HBOND_ACCEPTOR>
2

> <PUBCHEM_CACTVS_HBOND_DONOR>
0

> <PUBCHEM_CACTVS_ROTATABLE_BOND>
1

> <PUBCHEM_CACTVS_SUBSKEYS>
AAADcYBgMAAAAAAAAAAAAAAAAAAAASAAAAAAAAAAAAAAAAABgAAAGgAAAAAACASgkAIwBIAABECIAKhSgAICCAAkIAAIiAFGCMgMJjKENR6CGSCkwBEIqYaIBgAAAAAAAAAAAAAAAAAAAAAAAAAAAAAAAA==

> <PUBCHEM_IUPAC_OPENEYE_NAME>
furan-2-carbaldehyde

> <PUBCHEM_IUPAC_CAS_NAME>
2-furancarboxaldehyde

> <PUBCHEM_IUPAC_NAME>
furan-2-carbaldehyde

> <PUBCHEM_IUPAC_SYSTEMATIC_NAME>
furan-2-carbaldehyde

> <PUBCHEM_IUPAC_TRADITIONAL_NAME>
furfural

> <PUBCHEM_IUPAC_INCHI>
InChI=1S/C5H4O2/c6-4-5-2-1-3-7-5/h1-4H

> <PUBCHEM_IUPAC_INCHIKEY>
HYBBIBNJHNGZAN-UHFFFAOYSA-N

> <PUBCHEM_XLOGP3>
0.4

> <PUBCHEM_EXACT_MASS>
96.021

> <PUBCHEM_MOLECULAR_FORMULA>
C5H4O2

> <PUBCHEM_MOLECULAR_WEIGHT>
96.085

> <PUBCHEM_OPENEYE_CAN_SMILES>
C1=COC(=C1)C=O

> <PUBCHEM_OPENEYE_ISO_SMILES>
C1=COC(=C1)C=O

> <PUBCHEM_CACTVS_TPSA>
30.2

> <PUBCHEM_MONOISOTOPIC_WEIGHT>
96.021

> <PUBCHEM_TOTAL_CHARGE>
0

> <PUBCHEM_HEAVY_ATOM_COUNT>
7

> <PUBCHEM_ATOM_DEF_STEREO_COUNT>
0

> <PUBCHEM_ATOM_UDEF_STEREO_COUNT>
0

> <PUBCHEM_BOND_DEF_STEREO_COUNT>
0

> <PUBCHEM_BOND_UDEF_STEREO_COUNT>
0

> <PUBCHEM_ISOTOPIC_ATOM_COUNT>
0

> <PUBCHEM_COMPONENT_COUNT>
1

> <PUBCHEM_CACTVS_TAUTO_COUNT>
-1

> <PUBCHEM_COORDINATE_TYPE>
1
5
255

> <PUBCHEM_BONDANNOTATIONS>
1  3  8
1  6  8
3  4  8
4  5  8
5  6  8

$$$$
342
  -OEChem-02061913062D

  8  8  0     0  0  0  0  0  0999 V2000
    3.7320    1.3450    0.0000 O   0  0  0  0  0  0  0  0  0  0  0  0
    2.8660   -1.1550    0.0000 C   0  0  0  0  0  0  0  0  0  0  0  0
    2.8660   -0.1550    0.0000 C   0  0  0  0  0  0  0  0  0  0  0  0
    3.7320   -1.6550    0.0000 C   0  0  0  0  0  0  0  0  0  0  0  0
    3.7320    0.3450    0.0000 C   0  0  0  0  0  0  0  0  0  0  0  0
    2.0000   -1.6550    0.0000 C   0  0  0  0  0  0  0  0  0  0  0  0
    4.5981   -1.1550    0.0000 C   0  0  0  0  0  0  0  0  0  0  0  0
    4.5981   -0.1550    0.0000 C   0  0  0  0  0  0  0  0  0  0  0  0
  1  5  1  0  0  0  0
  2  3  2  0  0  0  0
  2  4  1  0  0  0  0
  2  6  1  0  0  0  0
  3  5  1  0  0  0  0
  4  7  2  0  0  0  0
  5  8  2  0  0  0  0
  7  8  1  0  0  0  0
M  END
> <PUBCHEM_COMPOUND_CID>
342

> <PUBCHEM_COMPOUND_CANONICALIZED>
1

> <PUBCHEM_CACTVS_COMPLEXITY>
70.8

> <PUBCHEM_CACTVS_HBOND_ACCEPTOR>
1

> <PUBCHEM_CACTVS_HBOND_DONOR>
1

> <PUBCHEM_CACTVS_ROTATABLE_BOND>
0

> <PUBCHEM_CACTVS_SUBSKEYS>
AAADccBgIAAAAAAAAAAAAAAAAAAAAAAAAAAwAAAAAAAAAAABAAAAGgAACAAADASAmAAyBoAAAgCAAiBCAAACAAAgIAAIiAAGCIgIJiKCERKAcAAkwBEImAeAwBAOAAABAAAAAAAAAAIAAAAAAAAAAAAAAA==

> <PUBCHEM_IUPAC_OPENEYE_NAME>
m-cresol

> <PUBCHEM_IUPAC_CAS_NAME>
3-methylphenol

> <PUBCHEM_IUPAC_NAME>
3-methylphenol

> <PUBCHEM_IUPAC_SYSTEMATIC_NAME>
3-methylphenol

> <PUBCHEM_IUPAC_TRADITIONAL_NAME>
m-cresol

> <PUBCHEM_IUPAC_INCHI>
InChI=1S/C7H8O/c1-6-3-2-4-7(8)5-6/h2-5,8H,1H3

> <PUBCHEM_IUPAC_INCHIKEY>
RLSSMJSEOOYNOY-UHFFFAOYSA-N

> <PUBCHEM_XLOGP3>
2

> <PUBCHEM_EXACT_MASS>
108.058

> <PUBCHEM_MOLECULAR_FORMULA>
C7H8O

> <PUBCHEM_MOLECULAR_WEIGHT>
108.14

> <PUBCHEM_OPENEYE_CAN_SMILES>
CC1=CC(=CC=C1)O

> <PUBCHEM_OPENEYE_ISO_SMILES>
CC1=CC(=CC=C1)O

> <PUBCHEM_CACTVS_TPSA>
20.2

> <PUBCHEM_MONOISOTOPIC_WEIGHT>
108.058

> <PUBCHEM_TOTAL_CHARGE>
0

> <PUBCHEM_HEAVY_ATOM_COUNT>
8

> <PUBCHEM_ATOM_DEF_STEREO_COUNT>
0

> <PUBCHEM_ATOM_UDEF_STEREO_COUNT>
0

> <PUBCHEM_BOND_DEF_STEREO_COUNT>
0

> <PUBCHEM_BOND_UDEF_STEREO_COUNT>
0

> <PUBCHEM_ISOTOPIC_ATOM_COUNT>
0

> <PUBCHEM_COMPONENT_COUNT>
1

> <PUBCHEM_CACTVS_TAUTO_COUNT>
-1

> <PUBCHEM_COORDINATE_TYPE>
1
5
255

> <PUBCHEM_BONDANNOTATIONS>
2  3  8
2  4  8
3  5  8
4  7  8
5  8  8
7  8  8

$$$$
4133
  -OEChem-02061913062D

 11 11  0     0  0  0  0  0  0999 V2000
    5.1350    1.2500    0.0000 O   0  0  0  0  0  0  0  0  0  0  0  0
    2.5369   -0.2500    0.0000 O   0  0  0  0  0  0  0  0  0  0  0  0
    3.4030    1.2500    0.0000 O   0  0  0  0  0  0  0  0  0  0  0  0
    4.2690   -0.2500    0.0000 C   0  0  0  0  0  0  0  0  0  0  0  0
    3.4030   -0.7500    0.0000 C   0  0  0  0  0  0  0  0  0  0  0  0
    5.1350   -0.7500    0.0000 C   0  0  0  0  0  0  0  0  0  0  0  0
    3.4030   -1.7500    0.0000 C   0  0  0  0  0  0  0  0  0  0  0  0
    5.1350   -1.7500    0.0000 C   0  0  0  0  0  0  0  0  0  0  0  0
    4.2690   -2.2500    0.0000 C   0  0  0  0  0  0  0  0  0  0  0  0
    4.2690    0.7500    0.0000 C   0  0  0  0  0  0  0  0  0  0  0  0
    5.1350    2.2500    0.0000 C   0  0  0  0  0  0  0  0  0  0  0  0
  1 10  1  0  0  0  0
  1 11  1  0  0  0  0
  2  5  1  0  0  0  0
  3 10  2  0  0  0  0
  4  5  1  0  0  0  0
  4  6  2  0  0  0  0
  4 10  1  0  0  0  0
  5  7  2  0  0  0  0
  6  8  1  0  0  0  0
  7  9  1  0  0  0  0
  8  9  2  0  0  0  0
M  END
> <PUBCHEM_COMPOUND_CID>
4133

> <PUBCHEM_COMPOUND_CANONICALIZED>
1

> <PUBCHEM_CACTVS_COMPLEXITY>
144

> <PUBCHEM_CACTVS_HBOND_ACCEPTOR>
3

> <PUBCHEM_CACTVS_HBOND_DONOR>
1

> <PUBCHEM_CACTVS_ROTATABLE_BOND>
2

> <PUBCHEM_CACTVS_SUBSKEYS>
AAADccBwMAAAAAAAAAAAAAAAAAAAAAAAAAAwAAAAAAAAAAABAAAAGgAACAAADASAmAIyDoAABgCIAiDSCAACAAAkIAAIiAEGCMgIJzaCNRqAcUAl4BEIuYeIyCCOAAAAAAAIAAAAAAAAABAAAAAAAAAAAA==

> <PUBCHEM_IUPAC_OPENEYE_NAME>
methyl 2-hydroxybenzoate

> <PUBCHEM_IUPAC_CAS_NAME>
2-hydroxybenzoic acid methyl ester

> <PUBCHEM_IUPAC_NAME>
methyl 2-hydroxybenzoate

> <PUBCHEM_IUPAC_SYSTEMATIC_NAME>
methyl 2-oxidanylbenzoate

> <PUBCHEM_IUPAC_TRADITIONAL_NAME>
2-hydroxybenzoic acid methyl ester

> <PUBCHEM_IUPAC_INCHI>
InChI=1S/C8H8O3/c1-11-8(10)6-4-2-3-5-7(6)9/h2-5,9H,1H3

> <PUBCHEM_IUPAC_INCHIKEY>
OSWPMRLSEDHDFF-UHFFFAOYSA-N

> <PUBCHEM_XLOGP3>
2.3

> <PUBCHEM_EXACT_MASS>
152.047

> <PUBCHEM_MOLECULAR_FORMULA>
C8H8O3

> <PUBCHEM_MOLECULAR_WEIGHT>
152.149

> <PUBCHEM_OPENEYE_CAN_SMILES>
COC(=O)C1=CC=CC=C1O

> <PUBCHEM_OPENEYE_ISO_SMILES>
COC(=O)C1=CC=CC=C1O

> <PUBCHEM_CACTVS_TPSA>
46.5

> <PUBCHEM_MONOISOTOPIC_WEIGHT>
152.047

> <PUBCHEM_TOTAL_CHARGE>
0

> <PUBCHEM_HEAVY_ATOM_COUNT>
11

> <PUBCHEM_ATOM_DEF_STEREO_COUNT>
0

> <PUBCHEM_ATOM_UDEF_STEREO_COUNT>
0

> <PUBCHEM_BOND_DEF_STEREO_COUNT>
0

> <PUBCHEM_BOND_UDEF_STEREO_COUNT>
0

> <PUBCHEM_ISOTOPIC_ATOM_COUNT>
0

> <PUBCHEM_COMPONENT_COUNT>
1

> <PUBCHEM_CACTVS_TAUTO_COUNT>
-1

> <PUBCHEM_COORDINATE_TYPE>
1
5
255

> <PUBCHEM_BONDANNOTATIONS>
4  5  8
4  6  8
5  7  8
6  8  8
7  9  8
8  9  8

$$$$
7583
  -OEChem-02061913072D

 13 14  0     0  0  0  0  0  0999 V2000
    2.8660    0.5000    0.0000 O   0  0  0  0  0  0  0  0  0  0  0  0
    2.8660   -0.5000    0.0000 C   0  0  0  0  0  0  0  0  0  0  0  0
    3.7320    1.0000    0.0000 C   0  0  0  0  0  0  0  0  0  0  0  0
    2.0000   -1.0000    0.0000 C   0  0  0  0  0  0  0  0  0  0  0  0
    4.5981    0.5000    0.0000 C   0  0  0  0  0  0  0  0  0  0  0  0
    3.7320   -1.0000    0.0000 C   0  0  0  0  0  0  0  0  0  0  0  0
    3.7320    2.0000    0.0000 C   0  0  0  0  0  0  0  0  0  0  0  0
    2.0000   -2.0000    0.0000 C   0  0  0  0  0  0  0  0  0  0  0  0
    5.4641    1.0000    0.0000 C   0  0  0  0  0  0  0  0  0  0  0  0
    3.7320   -2.0000    0.0000 C   0  0  0  0  0  0  0  0  0  0  0  0
    4.5981    2.5000    0.0000 C   0  0  0  0  0  0  0  0  0  0  0  0
    5.4641    2.0000    0.0000 C   0  0  0  0  0  0  0  0  0  0  0  0
    2.8660   -2.5000    0.0000 C   0  0  0  0  0  0  0  0  0  0  0  0
  1  2  1  0  0  0  0
  1  3  1  0  0  0  0
  2  4  2  0  0  0  0
  2  6  1  0  0  0  0
  3  5  2  0  0  0  0
  3  7  1  0  0  0  0
  4  8  1  0  0  0  0
  5  9  1  0  0  0  0
  6 10  2  0  0  0  0
  7 11  2  0  0  0  0
  8 13  2  0  0  0  0
  9 12  2  0  0  0  0
 10 13  1  0  0  0  0
 11 12  1  0  0  0  0
M  END
> <PUBCHEM_COMPOUND_CID>
7583

> <PUBCHEM_COMPOUND_CANONICALIZED>
1

> <PUBCHEM_CACTVS_COMPLEXITY>
116

> <PUBCHEM_CACTVS_HBOND_ACCEPTOR>
1

> <PUBCHEM_CACTVS_HBOND_DONOR>
0

> <PUBCHEM_CACTVS_ROTATABLE_BOND>
2

> <PUBCHEM_CACTVS_SUBSKEYS>
AAADccBwIAAAAAAAAAAAAAAAAAAAAAAAAAAwYAAAAAAAAAABQAAAGgAAAAAACASAkAAwBoAABACAACBCAAACCAAgIAAIiAAGCIgMJiKEMRqCOCCkwBEIqAeAQAAAAAAAAAAAAAAAAAAAAAAAAAAAAAAAAA==

> <PUBCHEM_IUPAC_OPENEYE_NAME>
phenoxybenzene

> <PUBCHEM_IUPAC_CAS_NAME>
phenoxybenzene

> <PUBCHEM_IUPAC_NAME>
phenoxybenzene

> <PUBCHEM_IUPAC_SYSTEMATIC_NAME>
phenoxybenzene

> <PUBCHEM_IUPAC_TRADITIONAL_NAME>
phenoxybenzene

> <PUBCHEM_IUPAC_INCHI>
InChI=1S/C12H10O/c1-3-7-11(8-4-1)13-12-9-5-2-6-10-12/h1-10H

> <PUBCHEM_IUPAC_INCHIKEY>
USIUVYZYUHIAEV-UHFFFAOYSA-N

> <PUBCHEM_XLOGP3>
4.2

> <PUBCHEM_EXACT_MASS>
170.073

> <PUBCHEM_MOLECULAR_FORMULA>
C12H10O

> <PUBCHEM_MOLECULAR_WEIGHT>
170.211

> <PUBCHEM_OPENEYE_CAN_SMILES>
C1=CC=C(C=C1)OC2=CC=CC=C2

> <PUBCHEM_OPENEYE_ISO_SMILES>
C1=CC=C(C=C1)OC2=CC=CC=C2

> <PUBCHEM_CACTVS_TPSA>
9.2

> <PUBCHEM_MONOISOTOPIC_WEIGHT>
170.073

> <PUBCHEM_TOTAL_CHARGE>
0

> <PUBCHEM_HEAVY_ATOM_COUNT>
13

> <PUBCHEM_ATOM_DEF_STEREO_COUNT>
0

> <PUBCHEM_ATOM_UDEF_STEREO_COUNT>
0

> <PUBCHEM_BOND_DEF_STEREO_COUNT>
0

> <PUBCHEM_BOND_UDEF_STEREO_COUNT>
0

> <PUBCHEM_ISOTOPIC_ATOM_COUNT>
0

> <PUBCHEM_COMPONENT_COUNT>
1

> <PUBCHEM_CACTVS_TAUTO_COUNT>
-1

> <PUBCHEM_COORDINATE_TYPE>
1
5
255

> <PUBCHEM_BONDANNOTATIONS>
10  13  8
11  12  8
2  4  8
2  6  8
3  5  8
3  7  8
4  8  8
5  9  8
6  10  8
7  11  8
8  13  8
9  12  8

$$$$
442021
  -OEChem-02061913092D

 29 35  0     1  0  0  0  0  0999 V2000
    8.5342   -2.0573    0.0000 O   0  0  0  0  0  0  0  0  0  0  0  0
    5.2671   -2.0952    0.0000 O   0  0  0  0  0  0  0  0  0  0  0  0
    2.8660    1.2152    0.0000 O   0  0  0  0  0  0  0  0  0  0  0  0
    2.8660   -0.7090    0.0000 O   0  0  0  0  0  0  0  0  0  0  0  0
    7.5417    2.0813    0.0000 N   0  0  3  0  0  0  0  0  0  0  0  0
    6.1331   -0.6711    0.0000 N   0  0  0  0  0  0  0  0  0  0  0  0
    6.9335    0.7152    0.0000 C   0  0  2  0  0  0  0  0  0  0  0  0
    6.9335   -0.2090    0.0000 C   0  0  2  0  0  0  0  0  0  0  0  0
    7.7339    1.1773    0.0000 C   0  0  2  0  0  0  0  0  0  0  0  0
    7.7339   -0.6711    0.0000 C   0  0  1  0  0  0  0  0  0  0  0  0
    8.5342   -0.2090    0.0000 C   0  0  1  0  0  0  0  0  0  0  0  0
    8.5342    0.7152    0.0000 C   0  0  0  0  0  0  0  0  0  0  0  0
    6.2467    1.3336    0.0000 C   0  0  0  0  0  0  0  0  0  0  0  0
    5.3328    0.7152    0.0000 C   0  0  0  0  0  0  0  0  0  0  0  0
    6.6226    2.1779    0.0000 C   0  0  0  0  0  0  0  0  0  0  0  0
    7.7339   -1.5952    0.0000 C   0  0  2  0  0  0  0  0  0  0  0  0
    9.3945   -0.5466    0.0000 C   0  0  0  0  0  0  0  0  0  0  0  0
    9.3587    1.2800    0.0000 C   0  0  0  0  0  0  0  0  0  0  0  0
    5.3328   -0.2090    0.0000 C   0  0  0  0  0  0  0  0  0  0  0  0
    6.9335   -2.0573    0.0000 C   0  0  0  0  0  0  0  0  0  0  0  0
    6.1331   -1.5952    0.0000 C   0  0  0  0  0  0  0  0  0  0  0  0
    4.5324    1.1773    0.0000 C   0  0  0  0  0  0  0  0  0  0  0  0
    9.7078   -1.1845    0.0000 C   0  0  0  0  0  0  0  0  0  0  0  0
    9.2560   -2.0471    0.0000 C   0  0  0  0  0  0  0  0  0  0  0  0
    4.5324   -0.6711    0.0000 C   0  0  0  0  0  0  0  0  0  0  0  0
    3.7320    0.7152    0.0000 C   0  0  0  0  0  0  0  0  0  0  0  0
    3.7320   -0.2090    0.0000 C   0  0  0  0  0  0  0  0  0  0  0  0
    2.8660    2.2152    0.0000 C   0  0  0  0  0  0  0  0  0  0  0  0
    2.0000   -0.2090    0.0000 C   0  0  0  0  0  0  0  0  0  0  0  0
  1 16  1  0  0  0  0
  1 24  1  0  0  0  0
  2 21  2  0  0  0  0
  3 26  1  0  0  0  0
  3 28  1  0  0  0  0
  4 27  1  0  0  0  0
  4 29  1  0  0  0  0
  5  9  1  0  0  0  0
  5 15  1  0  0  0  0
  5 18  1  0  0  0  0
  6  8  1  0  0  0  0
  6 19  1  0  0  0  0
  6 21  1  0  0  0  0
  7  8  1  0  0  0  0
  7  9  1  0  0  0  0
  7 13  1  0  0  0  0
  7 14  1  6  0  0  0
  8 10  1  0  0  0  0
  9 12  1  0  0  0  0
 10 11  1  0  0  0  0
 10 16  1  0  0  0  0
 11 12  1  0  0  0  0
 11 17  1  0  0  0  0
 13 15  1  0  0  0  0
 14 19  1  0  0  0  0
 14 22  2  0  0  0  0
 16 20  1  0  0  0  0
 17 18  1  0  0  0  0
 17 23  2  0  0  0  0
 19 25  2  0  0  0  0
 20 21  1  0  0  0  0
 22 26  1  0  0  0  0
 23 24  1  0  0  0  0
 25 27  1  0  0  0  0
 26 27  2  0  0  0  0
M  END
> <PUBCHEM_COMPOUND_CID>
442021

> <PUBCHEM_COMPOUND_CANONICALIZED>
1

> <PUBCHEM_CACTVS_COMPLEXITY>
785

> <PUBCHEM_CACTVS_HBOND_ACCEPTOR>
5

> <PUBCHEM_CACTVS_HBOND_DONOR>
0

> <PUBCHEM_CACTVS_ROTATABLE_BOND>
2

> <PUBCHEM_CACTVS_SUBSKEYS>
AAADceB7OAAAAAAAAAAAAAAAAAAAAWLAAAA8eIEABAAAAFgBAAAAHgAAAAAADzzhmAYyxoMABACIAiVSUACCCAAhIgAAiAEO7IgNJjbE8ZuGMCpm5hnK6Ae42fOfoEABAgACQADQgAaECCSAAAAAAAAAAA==

> <PUBCHEM_IUPAC_OPENEYE_NAME>
(4~{a}~{R},5~{a}~{S},8~{a}~{R},13~{a}~{S},15~{a}~{S},15~{b}~{R})-10,11-dimethoxy-4~{a},5,5~{a},7,8,13~{a},15,15~{a},15~{b},16-decahydro-2~{H}-4,6-methanoindolo[3,2,1-ij]oxepino[2,3,4-de]pyrrolo[2,3-h]quinolin-14-one

> <PUBCHEM_IUPAC_CAS_NAME>
(4~{a}~{R},5~{a}~{S},8~{a}~{R},13~{a}~{S},15~{a}~{S},15~{b}~{R})-10,11-dimethoxy-4~{a},5,5~{a},7,8,13~{a},15,15~{a},15~{b},16-decahydro-2~{H}-4,6-methanoindolo[3,2,1-ij]oxepino[2,3,4-de]pyrrolo[2,3-h]quinolin-14-one

> <PUBCHEM_IUPAC_NAME>
(4~{a}~{R},5~{a}~{S},8~{a}~{R},13~{a}~{S},15~{a}~{S},15~{b}~{R})-10,11-dimethoxy-4~{a},5,5~{a},7,8,13~{a},15,15~{a},15~{b},16-decahydro-2~{H}-4,6-methanoindolo[3,2,1-ij]oxepino[2,3,4-de]pyrrolo[2,3-h]quinolin-14-one

> <PUBCHEM_IUPAC_SYSTEMATIC_NAME>
(4~{a}~{R},5~{a}~{S},8~{a}~{R},13~{a}~{S},15~{a}~{S},15~{b}~{R})-10,11-dimethoxy-4~{a},5,5~{a},7,8,13~{a},15,15~{a},15~{b},16-decahydro-2~{H}-4,6-methanoindolo[3,2,1-ij]oxepino[2,3,4-de]pyrrolo[2,3-h]quinolin-14-one

> <PUBCHEM_IUPAC_TRADITIONAL_NAME>
(4~{a}~{R},5~{a}~{S},8~{a}~{R},13~{a}~{S},15~{a}~{S},15~{b}~{R})-10,11-dimethoxy-4~{a},5,5~{a},7,8,13~{a},15,15~{a},15~{b},16-decahydro-2~{H}-4,6-methanoindolo[3,2,1-ij]oxepino[2,3,4-de]pyrrolo[2,3-h]quinolin-14-one

> <PUBCHEM_IUPAC_INCHI>
InChI=1S/C23H26N2O4/c1-27-16-8-14-15(9-17(16)28-2)25-20(26)10-18-21-13-7-19-23(14,22(21)25)4-5-24(19)11-12(13)3-6-29-18/h3,8-9,13,18-19,21-22H,4-7,10-11H2,1-2H3/t13-,18-,19-,21-,22-,23+/m0/s1

> <PUBCHEM_IUPAC_INCHIKEY>
RRKTZKIUPZVBMF-IBTVXLQLSA-N

> <PUBCHEM_XLOGP3>
1

> <PUBCHEM_EXACT_MASS>
394.189

> <PUBCHEM_MOLECULAR_FORMULA>
C23H26N2O4

> <PUBCHEM_MOLECULAR_WEIGHT>
394.471

> <PUBCHEM_OPENEYE_CAN_SMILES>
COC1=C(C=C2C(=C1)C34CCN5C3CC6C7C4N2C(=O)CC7OCC=C6C5)OC

> <PUBCHEM_OPENEYE_ISO_SMILES>
COC1=C(C=C2C(=C1)[C@]34CCN5[C@H]3C[C@@H]6[C@@H]7[C@@H]4N2C(=O)C[C@@H]7OCC=C6C5)OC

> <PUBCHEM_CACTVS_TPSA>
51.2

> <PUBCHEM_MONOISOTOPIC_WEIGHT>
394.189

> <PUBCHEM_TOTAL_CHARGE>
0

> <PUBCHEM_HEAVY_ATOM_COUNT>
29

> <PUBCHEM_ATOM_DEF_STEREO_COUNT>
6

> <PUBCHEM_ATOM_UDEF_STEREO_COUNT>
0

> <PUBCHEM_BOND_DEF_STEREO_COUNT>
0

> <PUBCHEM_BOND_UDEF_STEREO_COUNT>
0

> <PUBCHEM_ISOTOPIC_ATOM_COUNT>
0

> <PUBCHEM_COMPONENT_COUNT>
1

> <PUBCHEM_CACTVS_TAUTO_COUNT>
-1

> <PUBCHEM_COORDINATE_TYPE>
1
5
255

> <PUBCHEM_BONDANNOTATIONS>
10  32  6
11  33  6
14  19  8
14  22  8
16  40  6
19  25  8
22  26  8
25  27  8
26  27  8
7  14  6
8  30  5
9  31  6

$$$$
2347
  -OEChem-02061913062D

 23 24  0     0  0  0  0  0  0999 V2000
    5.4641   -1.7500    0.0000 O   0  0  0  0  0  0  0  0  0  0  0  0
    8.9282    0.2500    0.0000 O   0  0  0  0  0  0  0  0  0  0  0  0
    6.3301   -0.2500    0.0000 O   0  0  0  0  0  0  0  0  0  0  0  0
    7.1962    0.2500    0.0000 O   0  0  0  0  0  0  0  0  0  0  0  0
    3.7320   -1.7500    0.0000 C   0  0  0  0  0  0  0  0  0  0  0  0
    2.8660   -1.2500    0.0000 C   0  0  0  0  0  0  0  0  0  0  0  0
    4.5981   -1.2500    0.0000 C   0  0  0  0  0  0  0  0  0  0  0  0
    7.1962   -1.7500    0.0000 C   0  0  0  0  0  0  0  0  0  0  0  0
    8.0622   -1.2500    0.0000 C   0  0  0  0  0  0  0  0  0  0  0  0
    2.0000   -1.7500    0.0000 C   0  0  0  0  0  0  0  0  0  0  0  0
    6.3301   -1.2500    0.0000 C   0  0  0  0  0  0  0  0  0  0  0  0
    7.1962   -2.7500    0.0000 C   0  0  0  0  0  0  0  0  0  0  0  0
    8.9282    1.2500    0.0000 C   0  0  0  0  0  0  0  0  0  0  0  0
    9.7942    1.7500    0.0000 C   0  0  0  0  0  0  0  0  0  0  0  0
    8.9282   -1.7500    0.0000 C   0  0  0  0  0  0  0  0  0  0  0  0
    8.0622   -0.2500    0.0000 C   0  0  0  0  0  0  0  0  0  0  0  0
    8.0622   -3.2500    0.0000 C   0  0  0  0  0  0  0  0  0  0  0  0
    8.9282   -2.7500    0.0000 C   0  0  0  0  0  0  0  0  0  0  0  0
   10.6603    1.2500    0.0000 C   0  0  0  0  0  0  0  0  0  0  0  0
    9.7942    2.7500    0.0000 C   0  0  0  0  0  0  0  0  0  0  0  0
   11.5263    1.7500    0.0000 C   0  0  0  0  0  0  0  0  0  0  0  0
   10.6603    3.2500    0.0000 C   0  0  0  0  0  0  0  0  0  0  0  0
   11.5263    2.7500    0.0000 C   0  0  0  0  0  0  0  0  0  0  0  0
  1  7  1  0  0  0  0
  1 11  1  0  0  0  0
  2 13  1  0  0  0  0
  2 16  1  0  0  0  0
  3 11  2  0  0  0  0
  4 16  2  0  0  0  0
  5  6  1  0  0  0  0
  5  7  1  0  0  0  0
  6 10  1  0  0  0  0
  8  9  1  0  0  0  0
  8 11  1  0  0  0  0
  8 12  2  0  0  0  0
  9 15  2  0  0  0  0
  9 16  1  0  0  0  0
 12 17  1  0  0  0  0
 13 14  1  0  0  0  0
 14 19  2  0  0  0  0
 14 20  1  0  0  0  0
 15 18  1  0  0  0  0
 17 18  2  0  0  0  0
 19 21  1  0  0  0  0
 20 22  2  0  0  0  0
 21 23  2  0  0  0  0
 22 23  1  0  0  0  0
M  END
> <PUBCHEM_COMPOUND_CID>
2347

> <PUBCHEM_COMPOUND_CANONICALIZED>
1

> <PUBCHEM_CACTVS_COMPLEXITY>
374

> <PUBCHEM_CACTVS_HBOND_ACCEPTOR>
4

> <PUBCHEM_CACTVS_HBOND_DONOR>
0

> <PUBCHEM_CACTVS_ROTATABLE_BOND>
9

> <PUBCHEM_CACTVS_SUBSKEYS>
AAADceB4OAAAAAAAAAAAAAAAAAAAAAAAAAAwYAAAAAAAAAABQAAAGgAAAAAADACgmAIyCIAABACIAiDSCAACAAAkAAAIiAEACMgIJjKANRiCMQAkwAEIqYfLyKCOgAAAAAAQAAAAAAAAACAAAAAAAAAAAA==

> <PUBCHEM_IUPAC_OPENEYE_NAME>
~{O}2-benzyl ~{O}1-butyl benzene-1,2-dicarboxylate

> <PUBCHEM_IUPAC_CAS_NAME>
benzene-1,2-dicarboxylic acid ~{O}1-butyl ester ~{O}2-(phenylmethyl) ester

> <PUBCHEM_IUPAC_NAME>
2-~{O}-benzyl 1-~{O}-butyl benzene-1,2-dicarboxylate

> <PUBCHEM_IUPAC_SYSTEMATIC_NAME>
~{O}1-butyl ~{O}2-(phenylmethyl) benzene-1,2-dicarboxylate

> <PUBCHEM_IUPAC_TRADITIONAL_NAME>
benzene-1,2-dicarboxylic acid ~{O}2-benzyl ester ~{O}1-butyl ester

> <PUBCHEM_IUPAC_INCHI>
InChI=1S/C19H20O4/c1-2-3-13-22-18(20)16-11-7-8-12-17(16)19(21)23-14-15-9-5-4-6-10-15/h4-12H,2-3,13-14H2,1H3

> <PUBCHEM_IUPAC_INCHIKEY>
IRIAEXORFWYRCZ-UHFFFAOYSA-N

> <PUBCHEM_XLOGP3>
4.9

> <PUBCHEM_EXACT_MASS>
312.136

> <PUBCHEM_MOLECULAR_FORMULA>
C19H20O4

> <PUBCHEM_MOLECULAR_WEIGHT>
312.365

> <PUBCHEM_OPENEYE_CAN_SMILES>
CCCCOC(=O)C1=CC=CC=C1C(=O)OCC2=CC=CC=C2

> <PUBCHEM_OPENEYE_ISO_SMILES>
CCCCOC(=O)C1=CC=CC=C1C(=O)OCC2=CC=CC=C2

> <PUBCHEM_CACTVS_TPSA>
52.6

> <PUBCHEM_MONOISOTOPIC_WEIGHT>
312.136

> <PUBCHEM_TOTAL_CHARGE>
0

> <PUBCHEM_HEAVY_ATOM_COUNT>
23

> <PUBCHEM_ATOM_DEF_STEREO_COUNT>
0

> <PUBCHEM_ATOM_UDEF_STEREO_COUNT>
0

> <PUBCHEM_BOND_DEF_STEREO_COUNT>
0

> <PUBCHEM_BOND_UDEF_STEREO_COUNT>
0

> <PUBCHEM_ISOTOPIC_ATOM_COUNT>
0

> <PUBCHEM_COMPONENT_COUNT>
1

> <PUBCHEM_CACTVS_TAUTO_COUNT>
-1

> <PUBCHEM_COORDINATE_TYPE>
1
5
255

> <PUBCHEM_BONDANNOTATIONS>
12  17  8
14  19  8
14  20  8
15  18  8
17  18  8
19  21  8
20  22  8
21  23  8
22  23  8
8  12  8
8  9  8
9  15  8

$$$$
6544
  -OEChem-02061913062D

 10 10  0     0  0  0  0  0  0999 V2000
    2.0000   -1.4330    0.0000 O   0  0  0  0  0  0  0  0  0  0  0  0
    3.7320    0.5670    0.0000 C   0  0  0  0  0  0  0  0  0  0  0  0
    4.5981    0.0670    0.0000 C   0  0  0  0  0  0  0  0  0  0  0  0
    2.8660    0.0670    0.0000 C   0  0  0  0  0  0  0  0  0  0  0  0
    4.2320    1.4330    0.0000 C   0  0  0  0  0  0  0  0  0  0  0  0
    3.2320    1.4330    0.0000 C   0  0  0  0  0  0  0  0  0  0  0  0
    4.5981   -0.9330    0.0000 C   0  0  0  0  0  0  0  0  0  0  0  0
    2.8660   -0.9330    0.0000 C   0  0  0  0  0  0  0  0  0  0  0  0
    3.7320   -1.4330    0.0000 C   0  0  0  0  0  0  0  0  0  0  0  0
    5.4641   -1.4330    0.0000 C   0  0  0  0  0  0  0  0  0  0  0  0
  1  8  2  0  0  0  0
  2  3  1  0  0  0  0
  2  4  1  0  0  0  0
  2  5  1  0  0  0  0
  2  6  1  0  0  0  0
  3  7  1  0  0  0  0
  4  8  1  0  0  0  0
  7  9  2  0  0  0  0
  7 10  1  0  0  0  0
  8  9  1  0  0  0  0
M  END
> <PUBCHEM_COMPOUND_CID>
6544

> <PUBCHEM_COMPOUND_CANONICALIZED>
1

> <PUBCHEM_CACTVS_COMPLEXITY>
187

> <PUBCHEM_CACTVS_HBOND_ACCEPTOR>
1

> <PUBCHEM_CACTVS_HBOND_DONOR>
0

> <PUBCHEM_CACTVS_ROTATABLE_BOND>
0

> <PUBCHEM_CACTVS_SUBSKEYS>
AAADccBwIAAAAAAAAAAAAAAAAAAAAAAAAAAgAAAAAAAAAAAAAAAAGgAAAAAADgSAgAACAAAAAACIAqBSAAAAAAAgAAAACAEAAEgAABIAAQAAAAAAgAAIAQMIiAAPAAAAAAAAAAAAAAAAAAAAAAAAAAAAAA==

> <PUBCHEM_IUPAC_OPENEYE_NAME>
3,5,5-trimethylcyclohex-2-en-1-one

> <PUBCHEM_IUPAC_CAS_NAME>
3,5,5-trimethyl-1-cyclohex-2-enone

> <PUBCHEM_IUPAC_NAME>
3,5,5-trimethylcyclohex-2-en-1-one

> <PUBCHEM_IUPAC_SYSTEMATIC_NAME>
3,5,5-trimethylcyclohex-2-en-1-one

> <PUBCHEM_IUPAC_TRADITIONAL_NAME>
3,5,5-trimethylcyclohex-2-en-1-one

> <PUBCHEM_IUPAC_INCHI>
InChI=1S/C9H14O/c1-7-4-8(10)6-9(2,3)5-7/h4H,5-6H2,1-3H3

> <PUBCHEM_IUPAC_INCHIKEY>
HJOVHMDZYOCNQW-UHFFFAOYSA-N

> <PUBCHEM_XLOGP3_AA>
1.6

> <PUBCHEM_EXACT_MASS>
138.104

> <PUBCHEM_MOLECULAR_FORMULA>
C9H14O

> <PUBCHEM_MOLECULAR_WEIGHT>
138.21

> <PUBCHEM_OPENEYE_CAN_SMILES>
CC1=CC(=O)CC(C1)(C)C

> <PUBCHEM_OPENEYE_ISO_SMILES>
CC1=CC(=O)CC(C1)(C)C

> <PUBCHEM_CACTVS_TPSA>
17.1

> <PUBCHEM_MONOISOTOPIC_WEIGHT>
138.104

> <PUBCHEM_TOTAL_CHARGE>
0

> <PUBCHEM_HEAVY_ATOM_COUNT>
10

> <PUBCHEM_ATOM_DEF_STEREO_COUNT>
0

> <PUBCHEM_ATOM_UDEF_STEREO_COUNT>
0

> <PUBCHEM_BOND_DEF_STEREO_COUNT>
0

> <PUBCHEM_BOND_UDEF_STEREO_COUNT>
0

> <PUBCHEM_ISOTOPIC_ATOM_COUNT>
0

> <PUBCHEM_COMPONENT_COUNT>
1

> <PUBCHEM_CACTVS_TAUTO_COUNT>
-1

> <PUBCHEM_COORDINATE_TYPE>
1
5
255

$$$$
7500
  -OEChem-02061913072D

  8  8  0     0  0  0  0  0  0999 V2000
    2.8660    1.2500    0.0000 C   0  0  0  0  0  0  0  0  0  0  0  0
    2.8660    0.2500    0.0000 C   0  0  0  0  0  0  0  0  0  0  0  0
    2.0000   -0.2500    0.0000 C   0  0  0  0  0  0  0  0  0  0  0  0
    3.7320   -0.2500    0.0000 C   0  0  0  0  0  0  0  0  0  0  0  0
    3.7320    1.7500    0.0000 C   0  0  0  0  0  0  0  0  0  0  0  0
    2.0000   -1.2500    0.0000 C   0  0  0  0  0  0  0  0  0  0  0  0
    3.7320   -1.2500    0.0000 C   0  0  0  0  0  0  0  0  0  0  0  0
    2.8660   -1.7500    0.0000 C   0  0  0  0  0  0  0  0  0  0  0  0
  1  2  1  0  0  0  0
  1  5  1  0  0  0  0
  2  3  2  0  0  0  0
  2  4  1  0  0  0  0
  3  6  1  0  0  0  0
  4  7  2  0  0  0  0
  6  8  2  0  0  0  0
  7  8  1  0  0  0  0
M  END
> <PUBCHEM_COMPOUND_CID>
7500

> <PUBCHEM_COMPOUND_CANONICALIZED>
1

> <PUBCHEM_CACTVS_COMPLEXITY>
51.1

> <PUBCHEM_CACTVS_HBOND_ACCEPTOR>
0

> <PUBCHEM_CACTVS_HBOND_DONOR>
0

> <PUBCHEM_CACTVS_ROTATABLE_BOND>
1

> <PUBCHEM_CACTVS_SUBSKEYS>
AAADccBwAAAAAAAAAAAAAAAAAAAAAAAAAAAwAAAAAAAAAAABAAAAGAAAAAAADACAGAAyAIAAAACAAiBCAAACAAAgAAAIiAAAAIgIICKAERCAIAAggAAIiAcAgIAOAAAAAAAAAAAAAAAAAAAAAAAAAAAAAA==

> <PUBCHEM_IUPAC_OPENEYE_NAME>
ethylbenzene

> <PUBCHEM_IUPAC_CAS_NAME>
ethylbenzene

> <PUBCHEM_IUPAC_NAME>
ethylbenzene

> <PUBCHEM_IUPAC_SYSTEMATIC_NAME>
ethylbenzene

> <PUBCHEM_IUPAC_TRADITIONAL_NAME>
ethylbenzene

> <PUBCHEM_IUPAC_INCHI>
InChI=1S/C8H10/c1-2-8-6-4-3-5-7-8/h3-7H,2H2,1H3

> <PUBCHEM_IUPAC_INCHIKEY>
YNQLUTRBYVCPMQ-UHFFFAOYSA-N

> <PUBCHEM_XLOGP3>
3.1

> <PUBCHEM_EXACT_MASS>
106.078

> <PUBCHEM_MOLECULAR_FORMULA>
C8H10

> <PUBCHEM_MOLECULAR_WEIGHT>
106.168

> <PUBCHEM_OPENEYE_CAN_SMILES>
CCC1=CC=CC=C1

> <PUBCHEM_OPENEYE_ISO_SMILES>
CCC1=CC=CC=C1

> <PUBCHEM_CACTVS_TPSA>
0

> <PUBCHEM_MONOISOTOPIC_WEIGHT>
106.078

> <PUBCHEM_TOTAL_CHARGE>
0

> <PUBCHEM_HEAVY_ATOM_COUNT>
8

> <PUBCHEM_ATOM_DEF_STEREO_COUNT>
0

> <PUBCHEM_ATOM_UDEF_STEREO_COUNT>
0

> <PUBCHEM_BOND_DEF_STEREO_COUNT>
0

> <PUBCHEM_BOND_UDEF_STEREO_COUNT>
0

> <PUBCHEM_ISOTOPIC_ATOM_COUNT>
0

> <PUBCHEM_COMPONENT_COUNT>
1

> <PUBCHEM_CACTVS_TAUTO_COUNT>
-1

> <PUBCHEM_COORDINATE_TYPE>
1
5
255

> <PUBCHEM_BONDANNOTATIONS>
2  3  8
2  4  8
3  6  8
4  7  8
6  8  8
7  8  8

$$$$
7407
  -OEChem-02061913072D

  9  9  0     0  0  0  0  0  0999 V2000
    2.8660    0.2500    0.0000 C   0  0  0  0  0  0  0  0  0  0  0  0
    2.8660    1.2500    0.0000 C   0  0  0  0  0  0  0  0  0  0  0  0
    2.0000   -0.2500    0.0000 C   0  0  0  0  0  0  0  0  0  0  0  0
    3.7320   -0.2500    0.0000 C   0  0  0  0  0  0  0  0  0  0  0  0
    2.0000   -1.2500    0.0000 C   0  0  0  0  0  0  0  0  0  0  0  0
    3.7320   -1.2500    0.0000 C   0  0  0  0  0  0  0  0  0  0  0  0
    3.7320    1.7500    0.0000 C   0  0  0  0  0  0  0  0  0  0  0  0
    2.8660   -1.7500    0.0000 C   0  0  0  0  0  0  0  0  0  0  0  0
    2.0000    1.7500    0.0000 C   0  0  0  0  0  0  0  0  0  0  0  0
  1  2  1  0  0  0  0
  1  3  2  0  0  0  0
  1  4  1  0  0  0  0
  2  7  1  0  0  0  0
  2  9  2  0  0  0  0
  3  5  1  0  0  0  0
  4  6  2  0  0  0  0
  5  8  2  0  0  0  0
  6  8  1  0  0  0  0
M  END
> <PUBCHEM_COMPOUND_CID>
7407

> <PUBCHEM_COMPOUND_CANONICALIZED>
1

> <PUBCHEM_CACTVS_COMPLEXITY>
96.6

> <PUBCHEM_CACTVS_HBOND_ACCEPTOR>
0

> <PUBCHEM_CACTVS_HBOND_DONOR>
0

> <PUBCHEM_CACTVS_ROTATABLE_BOND>
1

> <PUBCHEM_CACTVS_SUBSKEYS>
AAADccBwAAAAAAAAAAAAAAAAAAAAAAAAAAAwAAAAAAAAAAABAAAAGAAAAAAADACAGAAyAIAAAACAAiBCAAACAAAgAAAIiAAAAIgIICKAERCAIAAggAAIiAcAgIAOAAAAAAAAAAAAAAAAAAAAAAAAAAAAAA==

> <PUBCHEM_IUPAC_OPENEYE_NAME>
isopropenylbenzene

> <PUBCHEM_IUPAC_CAS_NAME>
1-methylethenylbenzene

> <PUBCHEM_IUPAC_NAME>
prop-1-en-2-ylbenzene

> <PUBCHEM_IUPAC_SYSTEMATIC_NAME>
prop-1-en-2-ylbenzene

> <PUBCHEM_IUPAC_TRADITIONAL_NAME>
isopropenylbenzene

> <PUBCHEM_IUPAC_INCHI>
InChI=1S/C9H10/c1-8(2)9-6-4-3-5-7-9/h3-7H,1H2,2H3

> <PUBCHEM_IUPAC_INCHIKEY>
XYLMUPLGERFSHI-UHFFFAOYSA-N

> <PUBCHEM_XLOGP3>
3.5

> <PUBCHEM_EXACT_MASS>
118.078

> <PUBCHEM_MOLECULAR_FORMULA>
C9H10

> <PUBCHEM_MOLECULAR_WEIGHT>
118.179

> <PUBCHEM_OPENEYE_CAN_SMILES>
CC(=C)C1=CC=CC=C1

> <PUBCHEM_OPENEYE_ISO_SMILES>
CC(=C)C1=CC=CC=C1

> <PUBCHEM_CACTVS_TPSA>
0

> <PUBCHEM_MONOISOTOPIC_WEIGHT>
118.078

> <PUBCHEM_TOTAL_CHARGE>
0

> <PUBCHEM_HEAVY_ATOM_COUNT>
9

> <PUBCHEM_ATOM_DEF_STEREO_COUNT>
0

> <PUBCHEM_ATOM_UDEF_STEREO_COUNT>
0

> <PUBCHEM_BOND_DEF_STEREO_COUNT>
0

> <PUBCHEM_BOND_UDEF_STEREO_COUNT>
0

> <PUBCHEM_ISOTOPIC_ATOM_COUNT>
0

> <PUBCHEM_COMPONENT_COUNT>
1

> <PUBCHEM_CACTVS_TAUTO_COUNT>
-1

> <PUBCHEM_COORDINATE_TYPE>
1
5
255

> <PUBCHEM_BONDANNOTATIONS>
1  3  8
1  4  8
3  5  8
4  6  8
5  8  8
6  8  8

$$$$
6854
  -OEChem-02061913072D

 13 15  0     0  0  0  0  0  0999 V2000
    4.5274    0.8518    0.0000 N   0  0  0  0  0  0  0  0  0  0  0  0
    5.0274   -0.6871    0.0000 C   0  0  0  0  0  0  0  0  0  0  0  0
    4.0274   -0.6871    0.0000 C   0  0  0  0  0  0  0  0  0  0  0  0
    5.3364    0.2640    0.0000 C   0  0  0  0  0  0  0  0  0  0  0  0
    3.7183    0.2640    0.0000 C   0  0  0  0  0  0  0  0  0  0  0  0
    5.7123   -1.4718    0.0000 C   0  0  0  0  0  0  0  0  0  0  0  0
    3.3424   -1.4718    0.0000 C   0  0  0  0  0  0  0  0  0  0  0  0
    6.3518    0.4963    0.0000 C   0  0  0  0  0  0  0  0  0  0  0  0
    2.7029    0.4963    0.0000 C   0  0  0  0  0  0  0  0  0  0  0  0
    2.3219   -1.2631    0.0000 C   0  0  0  0  0  0  0  0  0  0  0  0
    6.7328   -1.2631    0.0000 C   0  0  0  0  0  0  0  0  0  0  0  0
    7.0547   -0.2724    0.0000 C   0  0  0  0  0  0  0  0  0  0  0  0
    2.0000   -0.2724    0.0000 C   0  0  0  0  0  0  0  0  0  0  0  0
  1  4  1  0  0  0  0
  1  5  1  0  0  0  0
  2  3  1  0  0  0  0
  2  4  1  0  0  0  0
  2  6  2  0  0  0  0
  3  5  1  0  0  0  0
  3  7  2  0  0  0  0
  4  8  2  0  0  0  0
  5  9  2  0  0  0  0
  6 11  1  0  0  0  0
  7 10  1  0  0  0  0
  8 12  1  0  0  0  0
  9 13  1  0  0  0  0
 10 13  2  0  0  0  0
 11 12  2  0  0  0  0
M  END
> <PUBCHEM_COMPOUND_CID>
6854

> <PUBCHEM_COMPOUND_CANONICALIZED>
1

> <PUBCHEM_CACTVS_COMPLEXITY>
170

> <PUBCHEM_CACTVS_HBOND_ACCEPTOR>
0

> <PUBCHEM_CACTVS_HBOND_DONOR>
1

> <PUBCHEM_CACTVS_ROTATABLE_BOND>
0

> <PUBCHEM_CACTVS_SUBSKEYS>
AAADccByAAAAAAAAAAAAAAAAAAAAAWAAAAAwYAAAAAAAAFgB/AAAHAAQAAAADAiBHgAwwPLJkACgAyRiRACCgCAhAiAImSAwZJgIIOLAkZGEIAhgkADIyAcQgMAOgAAAAAACAAAAAAAAAAQAAAAAAAAAAA==

> <PUBCHEM_IUPAC_OPENEYE_NAME>
9~{H}-carbazole

> <PUBCHEM_IUPAC_CAS_NAME>
9~{H}-carbazole

> <PUBCHEM_IUPAC_NAME>
9~{H}-carbazole

> <PUBCHEM_IUPAC_SYSTEMATIC_NAME>
9~{H}-carbazole

> <PUBCHEM_IUPAC_TRADITIONAL_NAME>
9~{H}-carbazole

> <PUBCHEM_IUPAC_INCHI>
InChI=1S/C12H9N/c1-3-7-11-9(5-1)10-6-2-4-8-12(10)13-11/h1-8,13H

> <PUBCHEM_IUPAC_INCHIKEY>
UJOBWOGCFQCDNV-UHFFFAOYSA-N

> <PUBCHEM_XLOGP3>
3.7

> <PUBCHEM_EXACT_MASS>
167.073

> <PUBCHEM_MOLECULAR_FORMULA>
C12H9N

> <PUBCHEM_MOLECULAR_WEIGHT>
167.211

> <PUBCHEM_OPENEYE_CAN_SMILES>
C1=CC=C2C(=C1)C3=CC=CC=C3N2

> <PUBCHEM_OPENEYE_ISO_SMILES>
C1=CC=C2C(=C1)C3=CC=CC=C3N2

> <PUBCHEM_CACTVS_TPSA>
15.8

> <PUBCHEM_MONOISOTOPIC_WEIGHT>
167.073

> <PUBCHEM_TOTAL_CHARGE>
0

> <PUBCHEM_HEAVY_ATOM_COUNT>
13

> <PUBCHEM_ATOM_DEF_STEREO_COUNT>
0

> <PUBCHEM_ATOM_UDEF_STEREO_COUNT>
0

> <PUBCHEM_BOND_DEF_STEREO_COUNT>
0

> <PUBCHEM_BOND_UDEF_STEREO_COUNT>
0

> <PUBCHEM_ISOTOPIC_ATOM_COUNT>
0

> <PUBCHEM_COMPONENT_COUNT>
1

> <PUBCHEM_CACTVS_TAUTO_COUNT>
-1

> <PUBCHEM_COORDINATE_TYPE>
1
5
255

> <PUBCHEM_BONDANNOTATIONS>
1  4  8
1  5  8
10  13  8
11  12  8
2  3  8
2  4  8
2  6  8
3  5  8
3  7  8
4  8  8
5  9  8
6  11  8
7  10  8
8  12  8
9  13  8

$$$$
6492
  -OEChem-02061913062D

 10 12  0     1  0  0  0  0  0999 V2000
    3.6086   -0.9653    0.0000 C   0  0  3  0  0  0  0  0  0  0  0  0
    3.2666   -0.0256    0.0000 C   0  0  3  0  0  0  0  0  0  0  0  0
    4.9813   -0.3733    0.0000 C   0  0  3  0  0  0  0  0  0  0  0  0
    5.2401    0.5927    0.0000 C   0  0  3  0  0  0  0  0  0  0  0  0
    4.5035    1.5753    0.0000 C   0  0  0  0  0  0  0  0  0  0  0  0
    2.8237   -1.5753    0.0000 C   0  0  0  0  0  0  0  0  0  0  0  0
    6.3802   -0.8821    0.0000 C   0  0  0  0  0  0  0  0  0  0  0  0
    6.6390    0.0838    0.0000 C   0  0  0  0  0  0  0  0  0  0  0  0
    2.2732   -0.0629    0.0000 C   0  0  0  0  0  0  0  0  0  0  0  0
    2.0000   -1.0187    0.0000 C   0  0  0  0  0  0  0  0  0  0  0  0
  1  2  1  0  0  0  0
  1  3  1  0  0  0  0
  1  6  1  0  0  0  0
  2  4  1  0  0  0  0
  2  9  1  0  0  0  0
  3  5  1  0  0  0  0
  3  7  1  0  0  0  0
  4  5  1  0  0  0  0
  4  8  1  0  0  0  0
  6 10  1  0  0  0  0
  7  8  2  0  0  0  0
  9 10  2  0  0  0  0
M  END
> <PUBCHEM_COMPOUND_CID>
6492

> <PUBCHEM_COMPOUND_CANONICALIZED>
1

> <PUBCHEM_CACTVS_COMPLEXITY>
212

> <PUBCHEM_CACTVS_HBOND_ACCEPTOR>
0

> <PUBCHEM_CACTVS_HBOND_DONOR>
0

> <PUBCHEM_CACTVS_ROTATABLE_BOND>
0

> <PUBCHEM_CACTVS_SUBSKEYS>
AAADccBwAAAAAAAAAAAAAAAAAAAAAYIEAAAgAAAAAAAQAAAAAAAAGAAAAAAADQCAAAAAAAAAAACAACBCAAAAAAAgAAAICAAAAAgAAAIAAQAAAAAAgAAIAAMAgMAOgAAAAAAAAAAAAAAAAAAAAQAACAAAAA==

> <PUBCHEM_IUPAC_OPENEYE_NAME>
tricyclo[5.2.1.0^{2,6}]deca-3,8-diene

> <PUBCHEM_IUPAC_CAS_NAME>
tricyclo[5.2.1.0^{2,6}]deca-3,8-diene

> <PUBCHEM_IUPAC_NAME>
tricyclo[5.2.1.0^{2,6}]deca-3,8-diene

> <PUBCHEM_IUPAC_SYSTEMATIC_NAME>
tricyclo[5.2.1.0^{2,6}]deca-3,8-diene

> <PUBCHEM_IUPAC_TRADITIONAL_NAME>
tricyclo[5.2.1.0^{2,6}]deca-3,8-diene

> <PUBCHEM_IUPAC_INCHI>
InChI=1S/C10H12/c1-2-9-7-4-5-8(6-7)10(9)3-1/h1-2,4-5,7-10H,3,6H2

> <PUBCHEM_IUPAC_INCHIKEY>
HECLRDQVFMWTQS-UHFFFAOYSA-N

> <PUBCHEM_XLOGP3_AA>
2.5

> <PUBCHEM_EXACT_MASS>
132.094

> <PUBCHEM_MOLECULAR_FORMULA>
C10H12

> <PUBCHEM_MOLECULAR_WEIGHT>
132.206

> <PUBCHEM_OPENEYE_CAN_SMILES>
C1C=CC2C1C3CC2C=C3

> <PUBCHEM_OPENEYE_ISO_SMILES>
C1C=CC2C1C3CC2C=C3

> <PUBCHEM_CACTVS_TPSA>
0

> <PUBCHEM_MONOISOTOPIC_WEIGHT>
132.094

> <PUBCHEM_TOTAL_CHARGE>
0

> <PUBCHEM_HEAVY_ATOM_COUNT>
10

> <PUBCHEM_ATOM_DEF_STEREO_COUNT>
0

> <PUBCHEM_ATOM_UDEF_STEREO_COUNT>
4

> <PUBCHEM_BOND_DEF_STEREO_COUNT>
0

> <PUBCHEM_BOND_UDEF_STEREO_COUNT>
0

> <PUBCHEM_ISOTOPIC_ATOM_COUNT>
0

> <PUBCHEM_COMPONENT_COUNT>
1

> <PUBCHEM_CACTVS_TAUTO_COUNT>
-1

> <PUBCHEM_COORDINATE_TYPE>
1
5
255

> <PUBCHEM_BONDANNOTATIONS>
1  6  3
2  9  3
3  7  3
4  8  3

$$$$
7564
  -OEChem-02061913072D

 14 15  0     0  0  0  0  0  0999 V2000
    2.8660    1.1550    0.0000 N   0  0  0  0  0  0  0  0  0  0  0  0
    2.8660   -2.8450    0.0000 N   0  0  0  0  0  0  0  0  0  0  0  0
    2.8660    0.1550    0.0000 C   0  0  0  0  0  0  0  0  0  0  0  0
    3.7320    1.6550    0.0000 C   0  0  0  0  0  0  0  0  0  0  0  0
    3.7320   -0.3450    0.0000 C   0  0  0  0  0  0  0  0  0  0  0  0
    2.0000   -0.3450    0.0000 C   0  0  0  0  0  0  0  0  0  0  0  0
    2.8660   -1.8450    0.0000 C   0  0  0  0  0  0  0  0  0  0  0  0
    3.7320   -1.3450    0.0000 C   0  0  0  0  0  0  0  0  0  0  0  0
    2.0000   -1.3450    0.0000 C   0  0  0  0  0  0  0  0  0  0  0  0
    4.5981    1.1550    0.0000 C   0  0  0  0  0  0  0  0  0  0  0  0
    3.7320    2.6550    0.0000 C   0  0  0  0  0  0  0  0  0  0  0  0
    5.4641    1.6550    0.0000 C   0  0  0  0  0  0  0  0  0  0  0  0
    4.5981    3.1550    0.0000 C   0  0  0  0  0  0  0  0  0  0  0  0
    5.4641    2.6550    0.0000 C   0  0  0  0  0  0  0  0  0  0  0  0
  1  3  1  0  0  0  0
  1  4  1  0  0  0  0
  2  7  1  0  0  0  0
  3  5  2  0  0  0  0
  3  6  1  0  0  0  0
  4 10  2  0  0  0  0
  4 11  1  0  0  0  0
  5  8  1  0  0  0  0
  6  9  2  0  0  0  0
  7  8  2  0  0  0  0
  7  9  1  0  0  0  0
 10 12  1  0  0  0  0
 11 13  2  0  0  0  0
 12 14  2  0  0  0  0
 13 14  1  0  0  0  0
M  END
> <PUBCHEM_COMPOUND_CID>
7564

> <PUBCHEM_COMPOUND_CANONICALIZED>
1

> <PUBCHEM_CACTVS_COMPLEXITY>
156

> <PUBCHEM_CACTVS_HBOND_ACCEPTOR>
2

> <PUBCHEM_CACTVS_HBOND_DONOR>
2

> <PUBCHEM_CACTVS_ROTATABLE_BOND>
2

> <PUBCHEM_CACTVS_SUBSKEYS>
AAADccBzAAAAAAAAAAAAAAAAAAAAAAAAAAAwYAAAAAAAAAABQAAAHAAQAAAACAiBEAAwwILAAACAACRCQACCAAAhAgAIiAAAZIgIIGLAkZGEIAhgkADIyAcQAAAAAACAAAAAAAAAAQAAAAAAAAAAAAAAAA==

> <PUBCHEM_IUPAC_OPENEYE_NAME>
~{N}4-phenylbenzene-1,4-diamine

> <PUBCHEM_IUPAC_CAS_NAME>
~{N}4-phenylbenzene-1,4-diamine

> <PUBCHEM_IUPAC_NAME>
4-~{N}-phenylbenzene-1,4-diamine

> <PUBCHEM_IUPAC_SYSTEMATIC_NAME>
~{N}4-phenylbenzene-1,4-diamine

> <PUBCHEM_IUPAC_TRADITIONAL_NAME>
semidine

> <PUBCHEM_IUPAC_INCHI>
InChI=1S/C12H12N2/c13-10-6-8-12(9-7-10)14-11-4-2-1-3-5-11/h1-9,14H,13H2

> <PUBCHEM_IUPAC_INCHIKEY>
ATGUVEKSASEFFO-UHFFFAOYSA-N

> <PUBCHEM_XLOGP3>
2.5

> <PUBCHEM_EXACT_MASS>
184.1

> <PUBCHEM_MOLECULAR_FORMULA>
C12H12N2

> <PUBCHEM_MOLECULAR_WEIGHT>
184.242

> <PUBCHEM_OPENEYE_CAN_SMILES>
C1=CC=C(C=C1)NC2=CC=C(C=C2)N

> <PUBCHEM_OPENEYE_ISO_SMILES>
C1=CC=C(C=C1)NC2=CC=C(C=C2)N

> <PUBCHEM_CACTVS_TPSA>
38

> <PUBCHEM_MONOISOTOPIC_WEIGHT>
184.1

> <PUBCHEM_TOTAL_CHARGE>
0

> <PUBCHEM_HEAVY_ATOM_COUNT>
14

> <PUBCHEM_ATOM_DEF_STEREO_COUNT>
0

> <PUBCHEM_ATOM_UDEF_STEREO_COUNT>
0

> <PUBCHEM_BOND_DEF_STEREO_COUNT>
0

> <PUBCHEM_BOND_UDEF_STEREO_COUNT>
0

> <PUBCHEM_ISOTOPIC_ATOM_COUNT>
0

> <PUBCHEM_COMPONENT_COUNT>
1

> <PUBCHEM_CACTVS_TAUTO_COUNT>
-1

> <PUBCHEM_COORDINATE_TYPE>
1
5
255

> <PUBCHEM_BONDANNOTATIONS>
10  12  8
11  13  8
12  14  8
13  14  8
3  5  8
3  6  8
4  10  8
4  11  8
5  8  8
6  9  8
7  8  8
7  9  8

$$$$
6616
  -OEChem-02061913062D

 10 11  0     1  0  0  0  0  0999 V2000
    3.7147   -0.2226    0.0000 C   0  0  3  0  0  0  0  0  0  0  0  0
    5.1137   -0.7314    0.0000 C   0  0  0  0  0  0  0  0  0  0  0  0
    3.9735    0.7433    0.0000 C   0  0  3  0  0  0  0  0  0  0  0  0
    3.2369    1.7259    0.0000 C   0  0  0  0  0  0  0  0  0  0  0  0
    2.3420   -0.8146    0.0000 C   0  0  0  0  0  0  0  0  0  0  0  0
    2.0000    0.1251    0.0000 C   0  0  0  0  0  0  0  0  0  0  0  0
    5.3725    0.2345    0.0000 C   0  0  0  0  0  0  0  0  0  0  0  0
    6.0272   -1.1382    0.0000 C   0  0  0  0  0  0  0  0  0  0  0  0
    5.0091   -1.7259    0.0000 C   0  0  0  0  0  0  0  0  0  0  0  0
    6.2385    0.7345    0.0000 C   0  0  0  0  0  0  0  0  0  0  0  0
  1  2  1  0  0  0  0
  1  4  1  0  0  0  0
  1  5  1  0  0  0  0
  2  7  1  0  0  0  0
  2  8  1  0  0  0  0
  2  9  1  0  0  0  0
  3  4  1  0  0  0  0
  3  6  1  0  0  0  0
  3  7  1  0  0  0  0
  5  6  1  0  0  0  0
  7 10  2  0  0  0  0
M  END
> <PUBCHEM_COMPOUND_CID>
6616

> <PUBCHEM_COMPOUND_CANONICALIZED>
1

> <PUBCHEM_CACTVS_COMPLEXITY>
177

> <PUBCHEM_CACTVS_HBOND_ACCEPTOR>
0

> <PUBCHEM_CACTVS_HBOND_DONOR>
0

> <PUBCHEM_CACTVS_ROTATABLE_BOND>
0

> <PUBCHEM_CACTVS_SUBSKEYS>
AAADceBwAAAAAAAAAAAAAAAAAAAAAYMAAAAwAAAAAAAAAAAAAAAAGAAAAAAADwCAAAACAAAAAACAAgBCAAAAAAAgAAAAAAAAAAgAAAIAAQAAAAAAgAAAAAEAgMAPgAAAAAAAAAAAAAQAACAAAQAACAAAAA==

> <PUBCHEM_IUPAC_OPENEYE_NAME>
2,2-dimethyl-3-methylene-norbornane

> <PUBCHEM_IUPAC_CAS_NAME>
2,2-dimethyl-3-methylenebicyclo[2.2.1]heptane

> <PUBCHEM_IUPAC_NAME>
2,2-dimethyl-3-methylidenebicyclo[2.2.1]heptane

> <PUBCHEM_IUPAC_SYSTEMATIC_NAME>
2,2-dimethyl-3-methylidene-bicyclo[2.2.1]heptane

> <PUBCHEM_IUPAC_TRADITIONAL_NAME>
2,2-dimethyl-3-methylene-norbornane

> <PUBCHEM_IUPAC_INCHI>
InChI=1S/C10H16/c1-7-8-4-5-9(6-8)10(7,2)3/h8-9H,1,4-6H2,2-3H3

> <PUBCHEM_IUPAC_INCHIKEY>
CRPUJAZIXJMDBK-UHFFFAOYSA-N

> <PUBCHEM_XLOGP3_AA>
3.3

> <PUBCHEM_EXACT_MASS>
136.125

> <PUBCHEM_MOLECULAR_FORMULA>
C10H16

> <PUBCHEM_MOLECULAR_WEIGHT>
136.238

> <PUBCHEM_OPENEYE_CAN_SMILES>
CC1(C2CCC(C2)C1=C)C

> <PUBCHEM_OPENEYE_ISO_SMILES>
CC1(C2CCC(C2)C1=C)C

> <PUBCHEM_CACTVS_TPSA>
0

> <PUBCHEM_MONOISOTOPIC_WEIGHT>
136.125

> <PUBCHEM_TOTAL_CHARGE>
0

> <PUBCHEM_HEAVY_ATOM_COUNT>
10

> <PUBCHEM_ATOM_DEF_STEREO_COUNT>
0

> <PUBCHEM_ATOM_UDEF_STEREO_COUNT>
2

> <PUBCHEM_BOND_DEF_STEREO_COUNT>
0

> <PUBCHEM_BOND_UDEF_STEREO_COUNT>
0

> <PUBCHEM_ISOTOPIC_ATOM_COUNT>
0

> <PUBCHEM_COMPONENT_COUNT>
1

> <PUBCHEM_CACTVS_TAUTO_COUNT>
-1

> <PUBCHEM_COORDINATE_TYPE>
1
5
255

> <PUBCHEM_BONDANNOTATIONS>
1  2  3
3  7  3

$$$$
5054
  -OEChem-02061913062D

  8  8  0     0  0  0  0  0  0999 V2000
    3.7320    1.6550    0.0000 O   0  0  0  0  0  0  0  0  0  0  0  0
    2.0000   -1.3450    0.0000 O   0  0  0  0  0  0  0  0  0  0  0  0
    3.7320    0.6550    0.0000 C   0  0  0  0  0  0  0  0  0  0  0  0
    2.8660   -0.8450    0.0000 C   0  0  0  0  0  0  0  0  0  0  0  0
    2.8660    0.1550    0.0000 C   0  0  0  0  0  0  0  0  0  0  0  0
    4.5981    0.1550    0.0000 C   0  0  0  0  0  0  0  0  0  0  0  0
    3.7320   -1.3450    0.0000 C   0  0  0  0  0  0  0  0  0  0  0  0
    4.5981   -0.8450    0.0000 C   0  0  0  0  0  0  0  0  0  0  0  0
  1  3  1  0  0  0  0
  2  4  1  0  0  0  0
  3  5  2  0  0  0  0
  3  6  1  0  0  0  0
  4  5  1  0  0  0  0
  4  7  2  0  0  0  0
  6  8  2  0  0  0  0
  7  8  1  0  0  0  0
M  END
> <PUBCHEM_COMPOUND_CID>
5054

> <PUBCHEM_COMPOUND_CANONICALIZED>
1

> <PUBCHEM_CACTVS_COMPLEXITY>
64.9

> <PUBCHEM_CACTVS_HBOND_ACCEPTOR>
2

> <PUBCHEM_CACTVS_HBOND_DONOR>
2

> <PUBCHEM_CACTVS_ROTATABLE_BOND>
0

> <PUBCHEM_CACTVS_SUBSKEYS>
AAADcYBgMAAAAAAAAAAAAAAAAAAAAAAAAAAwAAAAAAAAAAABAAAAGgAACAAACASAkAAwBoAAAgCAACBCAAACAAAgIAAIiAAGCIgIJyKCERKAcAAlwBUImAeAYAQAAAAACAAAAAAAAAAQAAAAAAAAAAAAAA==

> <PUBCHEM_IUPAC_OPENEYE_NAME>
benzene-1,3-diol

> <PUBCHEM_IUPAC_CAS_NAME>
benzene-1,3-diol

> <PUBCHEM_IUPAC_NAME>
benzene-1,3-diol

> <PUBCHEM_IUPAC_SYSTEMATIC_NAME>
benzene-1,3-diol

> <PUBCHEM_IUPAC_TRADITIONAL_NAME>
resorcinol

> <PUBCHEM_IUPAC_INCHI>
InChI=1S/C6H6O2/c7-5-2-1-3-6(8)4-5/h1-4,7-8H

> <PUBCHEM_IUPAC_INCHIKEY>
GHMLBKRAJCXXBS-UHFFFAOYSA-N

> <PUBCHEM_XLOGP3>
0.8

> <PUBCHEM_EXACT_MASS>
110.037

> <PUBCHEM_MOLECULAR_FORMULA>
C6H6O2

> <PUBCHEM_MOLECULAR_WEIGHT>
110.112

> <PUBCHEM_OPENEYE_CAN_SMILES>
C1=CC(=CC(=C1)O)O

> <PUBCHEM_OPENEYE_ISO_SMILES>
C1=CC(=CC(=C1)O)O

> <PUBCHEM_CACTVS_TPSA>
40.5

> <PUBCHEM_MONOISOTOPIC_WEIGHT>
110.037

> <PUBCHEM_TOTAL_CHARGE>
0

> <PUBCHEM_HEAVY_ATOM_COUNT>
8

> <PUBCHEM_ATOM_DEF_STEREO_COUNT>
0

> <PUBCHEM_ATOM_UDEF_STEREO_COUNT>
0

> <PUBCHEM_BOND_DEF_STEREO_COUNT>
0

> <PUBCHEM_BOND_UDEF_STEREO_COUNT>
0

> <PUBCHEM_ISOTOPIC_ATOM_COUNT>
0

> <PUBCHEM_COMPONENT_COUNT>
1

> <PUBCHEM_CACTVS_TAUTO_COUNT>
-1

> <PUBCHEM_COORDINATE_TYPE>
1
5
255

> <PUBCHEM_BONDANNOTATIONS>
3  5  8
3  6  8
4  5  8
4  7  8
6  8  8
7  8  8

$$$$
2345
  -OEChem-02061913062D

 16 17  0     0  0  0  0  0  0999 V2000
    3.7320    0.2500    0.0000 O   0  0  0  0  0  0  0  0  0  0  0  0
    2.0000    0.2500    0.0000 O   0  0  0  0  0  0  0  0  0  0  0  0
    4.5981    1.7500    0.0000 C   0  0  0  0  0  0  0  0  0  0  0  0
    3.7320    1.2500    0.0000 C   0  0  0  0  0  0  0  0  0  0  0  0
    2.8660   -1.2500    0.0000 C   0  0  0  0  0  0  0  0  0  0  0  0
    5.4641    1.2500    0.0000 C   0  0  0  0  0  0  0  0  0  0  0  0
    4.5981    2.7500    0.0000 C   0  0  0  0  0  0  0  0  0  0  0  0
    2.8660   -0.2500    0.0000 C   0  0  0  0  0  0  0  0  0  0  0  0
    6.3301    1.7500    0.0000 C   0  0  0  0  0  0  0  0  0  0  0  0
    5.4641    3.2500    0.0000 C   0  0  0  0  0  0  0  0  0  0  0  0
    2.0000   -1.7500    0.0000 C   0  0  0  0  0  0  0  0  0  0  0  0
    3.7320   -1.7500    0.0000 C   0  0  0  0  0  0  0  0  0  0  0  0
    6.3301    2.7500    0.0000 C   0  0  0  0  0  0  0  0  0  0  0  0
    2.0000   -2.7500    0.0000 C   0  0  0  0  0  0  0  0  0  0  0  0
    3.7320   -2.7500    0.0000 C   0  0  0  0  0  0  0  0  0  0  0  0
    2.8660   -3.2500    0.0000 C   0  0  0  0  0  0  0  0  0  0  0  0
  1  4  1  0  0  0  0
  1  8  1  0  0  0  0
  2  8  2  0  0  0  0
  3  4  1  0  0  0  0
  3  6  2  0  0  0  0
  3  7  1  0  0  0  0
  5  8  1  0  0  0  0
  5 11  2  0  0  0  0
  5 12  1  0  0  0  0
  6  9  1  0  0  0  0
  7 10  2  0  0  0  0
  9 13  2  0  0  0  0
 10 13  1  0  0  0  0
 11 14  1  0  0  0  0
 12 15  2  0  0  0  0
 14 16  2  0  0  0  0
 15 16  1  0  0  0  0
M  END
> <PUBCHEM_COMPOUND_CID>
2345

> <PUBCHEM_COMPOUND_CANONICALIZED>
1

> <PUBCHEM_CACTVS_COMPLEXITY>
213

> <PUBCHEM_CACTVS_HBOND_ACCEPTOR>
2

> <PUBCHEM_CACTVS_HBOND_DONOR>
0

> <PUBCHEM_CACTVS_ROTATABLE_BOND>
4

> <PUBCHEM_CACTVS_SUBSKEYS>
AAADccBwMAAAAAAAAAAAAAAAAAAAAAAAAAAwYAAAAAAAAAABQAAAGgAAAAAADACgmAIwCIAABACIAiDSCAACAAAkAAAIiAEACMgIJjKANRiCMQAkwAEIqYeIyCCOAAAAAAAAAAAAAAAAAAAAAAAAAAAAAA==

> <PUBCHEM_IUPAC_OPENEYE_NAME>
benzyl benzoate

> <PUBCHEM_IUPAC_CAS_NAME>
benzoic acid (phenylmethyl) ester

> <PUBCHEM_IUPAC_NAME>
benzyl benzoate

> <PUBCHEM_IUPAC_SYSTEMATIC_NAME>
(phenylmethyl) benzoate

> <PUBCHEM_IUPAC_TRADITIONAL_NAME>
benzoic acid benzyl ester

> <PUBCHEM_IUPAC_INCHI>
InChI=1S/C14H12O2/c15-14(13-9-5-2-6-10-13)16-11-12-7-3-1-4-8-12/h1-10H,11H2

> <PUBCHEM_IUPAC_INCHIKEY>
SESFRYSPDFLNCH-UHFFFAOYSA-N

> <PUBCHEM_XLOGP3>
4

> <PUBCHEM_EXACT_MASS>
212.084

> <PUBCHEM_MOLECULAR_FORMULA>
C14H12O2

> <PUBCHEM_MOLECULAR_WEIGHT>
212.248

> <PUBCHEM_OPENEYE_CAN_SMILES>
C1=CC=C(C=C1)COC(=O)C2=CC=CC=C2

> <PUBCHEM_OPENEYE_ISO_SMILES>
C1=CC=C(C=C1)COC(=O)C2=CC=CC=C2

> <PUBCHEM_CACTVS_TPSA>
26.3

> <PUBCHEM_MONOISOTOPIC_WEIGHT>
212.084

> <PUBCHEM_TOTAL_CHARGE>
0

> <PUBCHEM_HEAVY_ATOM_COUNT>
16

> <PUBCHEM_ATOM_DEF_STEREO_COUNT>
0

> <PUBCHEM_ATOM_UDEF_STEREO_COUNT>
0

> <PUBCHEM_BOND_DEF_STEREO_COUNT>
0

> <PUBCHEM_BOND_UDEF_STEREO_COUNT>
0

> <PUBCHEM_ISOTOPIC_ATOM_COUNT>
0

> <PUBCHEM_COMPONENT_COUNT>
1

> <PUBCHEM_CACTVS_TAUTO_COUNT>
-1

> <PUBCHEM_COORDINATE_TYPE>
1
5
255

> <PUBCHEM_BONDANNOTATIONS>
10  13  8
11  14  8
12  15  8
14  16  8
15  16  8
3  6  8
3  7  8
5  11  8
5  12  8
6  9  8
7  10  8
9  13  8

$$$$
14896
  -OEChem-02061913072D

 10 11  0     1  0  0  0  0  0999 V2000
    5.4490   -0.0329    0.0000 C   0  0  0  0  0  0  0  0  0  0  0  0
    4.3089    0.9242    0.0000 C   0  0  3  0  0  0  0  0  0  0  0  0
    4.0501   -0.0417    0.0000 C   0  0  3  0  0  0  0  0  0  0  0  0
    3.5723    1.9068    0.0000 C   0  0  0  0  0  0  0  0  0  0  0  0
    2.2756    0.6130    0.0000 C   0  0  0  0  0  0  0  0  0  0  0  0
    2.8290   -0.9074    0.0000 C   0  0  0  0  0  0  0  0  0  0  0  0
    2.0000   -0.3482    0.0000 C   0  0  0  0  0  0  0  0  0  0  0  0
    5.9490   -0.8990    0.0000 C   0  0  0  0  0  0  0  0  0  0  0  0
    6.3150    0.4671    0.0000 C   0  0  0  0  0  0  0  0  0  0  0  0
    2.8639   -1.9068    0.0000 C   0  0  0  0  0  0  0  0  0  0  0  0
  1  2  1  0  0  0  0
  1  3  1  0  0  0  0
  1  8  1  0  0  0  0
  1  9  1  0  0  0  0
  2  4  1  0  0  0  0
  2  5  1  0  0  0  0
  3  4  1  0  0  0  0
  3  6  1  0  0  0  0
  5  7  1  0  0  0  0
  6  7  1  0  0  0  0
  6 10  2  0  0  0  0
M  END
> <PUBCHEM_COMPOUND_CID>
14896

> <PUBCHEM_COMPOUND_CANONICALIZED>
1

> <PUBCHEM_CACTVS_COMPLEXITY>
177

> <PUBCHEM_CACTVS_HBOND_ACCEPTOR>
0

> <PUBCHEM_CACTVS_HBOND_DONOR>
0

> <PUBCHEM_CACTVS_ROTATABLE_BOND>
0

> <PUBCHEM_CACTVS_SUBSKEYS>
AAADceBwAAAAAAAAAAAAAAAAAABgAAAAAAAwYAAAAAAAAAAAAAAAGAAAAAAADwCAAAACAAAAAACAAgBCAAAAAAAgAAAAAAAAAAgAAAIAAQAAAAAAgAAAAAEAgMAPgAAAAAAAAAAAAAAAACAAAAAAAAAAAA==

> <PUBCHEM_IUPAC_OPENEYE_NAME>
6,6-dimethyl-2-methylene-norpinane

> <PUBCHEM_IUPAC_CAS_NAME>
6,6-dimethyl-2-methylenebicyclo[3.1.1]heptane

> <PUBCHEM_IUPAC_NAME>
6,6-dimethyl-2-methylidenebicyclo[3.1.1]heptane

> <PUBCHEM_IUPAC_SYSTEMATIC_NAME>
6,6-dimethyl-2-methylidene-bicyclo[3.1.1]heptane

> <PUBCHEM_IUPAC_TRADITIONAL_NAME>
6,6-dimethyl-2-methylene-norpinane

> <PUBCHEM_IUPAC_INCHI>
InChI=1S/C10H16/c1-7-4-5-8-6-9(7)10(8,2)3/h8-9H,1,4-6H2,2-3H3

> <PUBCHEM_IUPAC_INCHIKEY>
WTARULDDTDQWMU-UHFFFAOYSA-N

> <PUBCHEM_XLOGP3_AA>
3.1

> <PUBCHEM_EXACT_MASS>
136.125

> <PUBCHEM_MOLECULAR_FORMULA>
C10H16

> <PUBCHEM_MOLECULAR_WEIGHT>
136.238

> <PUBCHEM_OPENEYE_CAN_SMILES>
CC1(C2CCC(=C)C1C2)C

> <PUBCHEM_OPENEYE_ISO_SMILES>
CC1(C2CCC(=C)C1C2)C

> <PUBCHEM_CACTVS_TPSA>
0

> <PUBCHEM_MONOISOTOPIC_WEIGHT>
136.125

> <PUBCHEM_TOTAL_CHARGE>
0

> <PUBCHEM_HEAVY_ATOM_COUNT>
10

> <PUBCHEM_ATOM_DEF_STEREO_COUNT>
0

> <PUBCHEM_ATOM_UDEF_STEREO_COUNT>
2

> <PUBCHEM_BOND_DEF_STEREO_COUNT>
0

> <PUBCHEM_BOND_UDEF_STEREO_COUNT>
0

> <PUBCHEM_ISOTOPIC_ATOM_COUNT>
0

> <PUBCHEM_COMPONENT_COUNT>
1

> <PUBCHEM_CACTVS_TAUTO_COUNT>
-1

> <PUBCHEM_COORDINATE_TYPE>
1
5
255

> <PUBCHEM_BONDANNOTATIONS>
2  11  3
3  12  3

$$$$
7923
  -OEChem-02061913072D

  7  7  0     0  0  0  0  0  0999 V2000
    3.7601   -0.7694    0.0000 O   0  0  0  0  0  0  0  0  0  0  0  0
    5.5202   -0.4907    0.0000 O   0  0  0  0  0  0  0  0  0  0  0  0
    2.0000   -0.4907    0.0000 O   0  0  0  0  0  0  0  0  0  0  0  0
    4.2601    0.7694    0.0000 C   0  0  0  0  0  0  0  0  0  0  0  0
    3.2601    0.7694    0.0000 C   0  0  0  0  0  0  0  0  0  0  0  0
    4.5691   -0.1816    0.0000 C   0  0  0  0  0  0  0  0  0  0  0  0
    2.9511   -0.1816    0.0000 C   0  0  0  0  0  0  0  0  0  0  0  0
  1  6  1  0  0  0  0
  1  7  1  0  0  0  0
  2  6  2  0  0  0  0
  3  7  2  0  0  0  0
  4  5  2  0  0  0  0
  4  6  1  0  0  0  0
  5  7  1  0  0  0  0
M  END
> <PUBCHEM_COMPOUND_CID>
7923

> <PUBCHEM_COMPOUND_CANONICALIZED>
1

> <PUBCHEM_CACTVS_COMPLEXITY>
129

> <PUBCHEM_CACTVS_HBOND_ACCEPTOR>
3

> <PUBCHEM_CACTVS_HBOND_DONOR>
0

> <PUBCHEM_CACTVS_ROTATABLE_BOND>
0

> <PUBCHEM_CACTVS_SUBSKEYS>
AAADcQBgMAAAAAAAAAAAAAAAAAAAAQAAAAAAAAAAAAAAAAAAAAAAGgAAAAAACACAgAAACAAABACIACDSCAAAAAAAAAAICAAAAEAABAAAIAACEAAAAAAAIYAAAAAAAAAAAAAAAAAAAAAAAAAAAAAAAAAAAA==

> <PUBCHEM_IUPAC_OPENEYE_NAME>
furan-2,5-dione

> <PUBCHEM_IUPAC_CAS_NAME>
furan-2,5-dione

> <PUBCHEM_IUPAC_NAME>
furan-2,5-dione

> <PUBCHEM_IUPAC_SYSTEMATIC_NAME>
furan-2,5-dione

> <PUBCHEM_IUPAC_TRADITIONAL_NAME>
furan-2,5-quinone

> <PUBCHEM_IUPAC_INCHI>
InChI=1S/C4H2O3/c5-3-1-2-4(6)7-3/h1-2H

> <PUBCHEM_IUPAC_INCHIKEY>
FPYJFEHAWHCUMM-UHFFFAOYSA-N

> <PUBCHEM_XLOGP3_AA>
-0.1

> <PUBCHEM_EXACT_MASS>
98

> <PUBCHEM_MOLECULAR_FORMULA>
C4H2O3

> <PUBCHEM_MOLECULAR_WEIGHT>
98.057

> <PUBCHEM_OPENEYE_CAN_SMILES>
C1=CC(=O)OC1=O

> <PUBCHEM_OPENEYE_ISO_SMILES>
C1=CC(=O)OC1=O

> <PUBCHEM_CACTVS_TPSA>
43.4

> <PUBCHEM_MONOISOTOPIC_WEIGHT>
98

> <PUBCHEM_TOTAL_CHARGE>
0

> <PUBCHEM_HEAVY_ATOM_COUNT>
7

> <PUBCHEM_ATOM_DEF_STEREO_COUNT>
0

> <PUBCHEM_ATOM_UDEF_STEREO_COUNT>
0

> <PUBCHEM_BOND_DEF_STEREO_COUNT>
0

> <PUBCHEM_BOND_UDEF_STEREO_COUNT>
0

> <PUBCHEM_ISOTOPIC_ATOM_COUNT>
0

> <PUBCHEM_COMPONENT_COUNT>
1

> <PUBCHEM_CACTVS_TAUTO_COUNT>
-1

> <PUBCHEM_COORDINATE_TYPE>
1
5
255

$$$$
31264
  -OEChem-02061913062D

  9  9  0     0  0  0  0  0  0999 V2000
    3.7320    1.5000    0.0000 O   0  0  0  0  0  0  0  0  0  0  0  0
    4.5981   -0.0000    0.0000 O   0  0  0  0  0  0  0  0  0  0  0  0
    2.8660    0.0000    0.0000 O   0  0  0  0  0  0  0  0  0  0  0  0
    3.7320   -0.5000    0.0000 C   0  0  0  0  0  0  0  0  0  0  0  0
    2.8660    1.0000    0.0000 C   0  0  0  0  0  0  0  0  0  0  0  0
    4.5981    1.0000    0.0000 C   0  0  0  0  0  0  0  0  0  0  0  0
    3.7320   -1.5000    0.0000 C   0  0  0  0  0  0  0  0  0  0  0  0
    2.0000    1.5000    0.0000 C   0  0  0  0  0  0  0  0  0  0  0  0
    5.4641    1.5000    0.0000 C   0  0  0  0  0  0  0  0  0  0  0  0
  1  5  1  0  0  0  0
  1  6  1  0  0  0  0
  2  4  1  0  0  0  0
  2  6  1  0  0  0  0
  3  4  1  0  0  0  0
  3  5  1  0  0  0  0
  4  7  1  0  0  0  0
  5  8  1  0  0  0  0
  6  9  1  0  0  0  0
M  END
> <PUBCHEM_COMPOUND_CID>
31264

> <PUBCHEM_COMPOUND_CANONICALIZED>
1

> <PUBCHEM_CACTVS_COMPLEXITY>
63.3

> <PUBCHEM_CACTVS_HBOND_ACCEPTOR>
3

> <PUBCHEM_CACTVS_HBOND_DONOR>
0

> <PUBCHEM_CACTVS_ROTATABLE_BOND>
0

> <PUBCHEM_CACTVS_SUBSKEYS>
AAADccBgMAAAAAAAAAAAAAAAAAAAAAAAAAAkAAAAAAAAAAAAAAAAGgAAAAAAAACwgAMCCAAABAAAAAAAAAAAAAAAAAAAAAAAAAAQAAAAAAAiAAAAAAAEAAAAAAAAAAAAAAAAAAAAAAAAAAAAAAAAAAAAAA==

> <PUBCHEM_IUPAC_OPENEYE_NAME>
2,4,6-trimethyl-1,3,5-trioxane

> <PUBCHEM_IUPAC_CAS_NAME>
2,4,6-trimethyl-1,3,5-trioxane

> <PUBCHEM_IUPAC_NAME>
2,4,6-trimethyl-1,3,5-trioxane

> <PUBCHEM_IUPAC_SYSTEMATIC_NAME>
2,4,6-trimethyl-1,3,5-trioxane

> <PUBCHEM_IUPAC_TRADITIONAL_NAME>
2,4,6-trimethyl-1,3,5-trioxane

> <PUBCHEM_IUPAC_INCHI>
InChI=1S/C6H12O3/c1-4-7-5(2)9-6(3)8-4/h4-6H,1-3H3

> <PUBCHEM_IUPAC_INCHIKEY>
SQYNKIJPMDEDEG-UHFFFAOYSA-N

> <PUBCHEM_XLOGP3>
0.7

> <PUBCHEM_EXACT_MASS>
132.079

> <PUBCHEM_MOLECULAR_FORMULA>
C6H12O3

> <PUBCHEM_MOLECULAR_WEIGHT>
132.159

> <PUBCHEM_OPENEYE_CAN_SMILES>
CC1OC(OC(O1)C)C

> <PUBCHEM_OPENEYE_ISO_SMILES>
CC1OC(OC(O1)C)C

> <PUBCHEM_CACTVS_TPSA>
27.7

> <PUBCHEM_MONOISOTOPIC_WEIGHT>
132.079

> <PUBCHEM_TOTAL_CHARGE>
0

> <PUBCHEM_HEAVY_ATOM_COUNT>
9

> <PUBCHEM_ATOM_DEF_STEREO_COUNT>
0

> <PUBCHEM_ATOM_UDEF_STEREO_COUNT>
0

> <PUBCHEM_BOND_DEF_STEREO_COUNT>
0

> <PUBCHEM_BOND_UDEF_STEREO_COUNT>
0

> <PUBCHEM_ISOTOPIC_ATOM_COUNT>
0

> <PUBCHEM_COMPONENT_COUNT>
1

> <PUBCHEM_CACTVS_TAUTO_COUNT>
-1

> <PUBCHEM_COORDINATE_TYPE>
1
5
255

$$$$
8079
  -OEChem-02061913072D

  6  6  0     0  0  0  0  0  0999 V2000
    2.8660    1.0000    0.0000 C   0  0  0  0  0  0  0  0  0  0  0  0
    2.0000    0.5000    0.0000 C   0  0  0  0  0  0  0  0  0  0  0  0
    3.7320    0.5000    0.0000 C   0  0  0  0  0  0  0  0  0  0  0  0
    2.0000   -0.5000    0.0000 C   0  0  0  0  0  0  0  0  0  0  0  0
    2.8660   -1.0000    0.0000 C   0  0  0  0  0  0  0  0  0  0  0  0
    3.7320   -0.5000    0.0000 C   0  0  0  0  0  0  0  0  0  0  0  0
  1  2  1  0  0  0  0
  1  3  1  0  0  0  0
  2  4  1  0  0  0  0
  3  6  1  0  0  0  0
  4  5  1  0  0  0  0
  5  6  2  0  0  0  0
M  END
> <PUBCHEM_COMPOUND_CID>
8079

> <PUBCHEM_COMPOUND_CANONICALIZED>
1

> <PUBCHEM_CACTVS_COMPLEXITY>
45.1

> <PUBCHEM_CACTVS_HBOND_ACCEPTOR>
0

> <PUBCHEM_CACTVS_HBOND_DONOR>
0

> <PUBCHEM_CACTVS_ROTATABLE_BOND>
0

> <PUBCHEM_CACTVS_SUBSKEYS>
AAADccBgAAAAAAAAAAAAAAAAAAAAAAAAAAAgAAAAAAAAAAAAAAAAGAAAAAAACACAAAAAAAAAAACAACBCAAAAAAAgAAAICAAAAAgAAAIAAQAAAAAAgAAIAAMAAAAAAAAAAAAAAAAAAAAAAAAAAAAAAAAAAA==

> <PUBCHEM_IUPAC_OPENEYE_NAME>
cyclohexene

> <PUBCHEM_IUPAC_CAS_NAME>
cyclohexene

> <PUBCHEM_IUPAC_NAME>
cyclohexene

> <PUBCHEM_IUPAC_SYSTEMATIC_NAME>
cyclohexene

> <PUBCHEM_IUPAC_TRADITIONAL_NAME>
cyclohexene

> <PUBCHEM_IUPAC_INCHI>
InChI=1S/C6H10/c1-2-4-6-5-3-1/h1-2H,3-6H2

> <PUBCHEM_IUPAC_INCHIKEY>
HGCIXCUEYOPUTN-UHFFFAOYSA-N

> <PUBCHEM_XLOGP3>
2.9

> <PUBCHEM_EXACT_MASS>
82.078

> <PUBCHEM_MOLECULAR_FORMULA>
C6H10

> <PUBCHEM_MOLECULAR_WEIGHT>
82.146

> <PUBCHEM_OPENEYE_CAN_SMILES>
C1CCC=CC1

> <PUBCHEM_OPENEYE_ISO_SMILES>
C1CCC=CC1

> <PUBCHEM_CACTVS_TPSA>
0

> <PUBCHEM_MONOISOTOPIC_WEIGHT>
82.078

> <PUBCHEM_TOTAL_CHARGE>
0

> <PUBCHEM_HEAVY_ATOM_COUNT>
6

> <PUBCHEM_ATOM_DEF_STEREO_COUNT>
0

> <PUBCHEM_ATOM_UDEF_STEREO_COUNT>
0

> <PUBCHEM_BOND_DEF_STEREO_COUNT>
0

> <PUBCHEM_BOND_UDEF_STEREO_COUNT>
0

> <PUBCHEM_ISOTOPIC_ATOM_COUNT>
0

> <PUBCHEM_COMPONENT_COUNT>
1

> <PUBCHEM_CACTVS_TAUTO_COUNT>
-1

> <PUBCHEM_COORDINATE_TYPE>
1
5
255

$$$$
6781
  -OEChem-02061913072D

 16 16  0     0  0  0  0  0  0999 V2000
    3.7320   -1.0000    0.0000 O   0  0  0  0  0  0  0  0  0  0  0  0
    7.1962    1.0000    0.0000 O   0  0  0  0  0  0  0  0  0  0  0  0
    4.5981    0.5000    0.0000 O   0  0  0  0  0  0  0  0  0  0  0  0
    5.4641    1.0000    0.0000 O   0  0  0  0  0  0  0  0  0  0  0  0
    6.3301   -0.5000    0.0000 C   0  0  0  0  0  0  0  0  0  0  0  0
    5.4641   -1.0000    0.0000 C   0  0  0  0  0  0  0  0  0  0  0  0
    7.1962   -1.0000    0.0000 C   0  0  0  0  0  0  0  0  0  0  0  0
    5.4641   -2.0000    0.0000 C   0  0  0  0  0  0  0  0  0  0  0  0
    6.3301    0.5000    0.0000 C   0  0  0  0  0  0  0  0  0  0  0  0
    4.5981   -0.5000    0.0000 C   0  0  0  0  0  0  0  0  0  0  0  0
    6.3301   -2.5000    0.0000 C   0  0  0  0  0  0  0  0  0  0  0  0
    7.1962   -2.0000    0.0000 C   0  0  0  0  0  0  0  0  0  0  0  0
    2.8660   -0.5000    0.0000 C   0  0  0  0  0  0  0  0  0  0  0  0
    7.1962    2.0000    0.0000 C   0  0  0  0  0  0  0  0  0  0  0  0
    2.0000   -1.0000    0.0000 C   0  0  0  0  0  0  0  0  0  0  0  0
    8.0622    2.5000    0.0000 C   0  0  0  0  0  0  0  0  0  0  0  0
  1 10  1  0  0  0  0
  1 13  1  0  0  0  0
  2  9  1  0  0  0  0
  2 14  1  0  0  0  0
  3 10  2  0  0  0  0
  4  9  2  0  0  0  0
  5  6  1  0  0  0  0
  5  7  2  0  0  0  0
  5  9  1  0  0  0  0
  6  8  2  0  0  0  0
  6 10  1  0  0  0  0
  7 12  1  0  0  0  0
  8 11  1  0  0  0  0
 11 12  2  0  0  0  0
 13 15  1  0  0  0  0
 14 16  1  0  0  0  0
M  END
> <PUBCHEM_COMPOUND_CID>
6781

> <PUBCHEM_COMPOUND_CANONICALIZED>
1

> <PUBCHEM_CACTVS_COMPLEXITY>
223

> <PUBCHEM_CACTVS_HBOND_ACCEPTOR>
4

> <PUBCHEM_CACTVS_HBOND_DONOR>
0

> <PUBCHEM_CACTVS_ROTATABLE_BOND>
6

> <PUBCHEM_CACTVS_SUBSKEYS>
AAADccBwOAAAAAAAAAAAAAAAAAAAAAAAAAAwAAAAAAAAAAABAAAAGgAAAAAADACgmAIyCIAABACIAiDSCAACAAAkAAAIiAEACMgIJjKANRiCMQAkwAEIqYfLyKCOgAAAAAAQAAAAAAAAACAAAAAAAAAAAA==

> <PUBCHEM_IUPAC_OPENEYE_NAME>
diethyl benzene-1,2-dicarboxylate

> <PUBCHEM_IUPAC_CAS_NAME>
benzene-1,2-dicarboxylic acid diethyl ester

> <PUBCHEM_IUPAC_NAME>
diethyl benzene-1,2-dicarboxylate

> <PUBCHEM_IUPAC_SYSTEMATIC_NAME>
diethyl benzene-1,2-dicarboxylate

> <PUBCHEM_IUPAC_TRADITIONAL_NAME>
benzene-1,2-dicarboxylic acid diethyl ester

> <PUBCHEM_IUPAC_INCHI>
InChI=1S/C12H14O4/c1-3-15-11(13)9-7-5-6-8-10(9)12(14)16-4-2/h5-8H,3-4H2,1-2H3

> <PUBCHEM_IUPAC_INCHIKEY>
FLKPEMZONWLCSK-UHFFFAOYSA-N

> <PUBCHEM_XLOGP3>
2.5

> <PUBCHEM_EXACT_MASS>
222.089

> <PUBCHEM_MOLECULAR_FORMULA>
C12H14O4

> <PUBCHEM_MOLECULAR_WEIGHT>
222.24

> <PUBCHEM_OPENEYE_CAN_SMILES>
CCOC(=O)C1=CC=CC=C1C(=O)OCC

> <PUBCHEM_OPENEYE_ISO_SMILES>
CCOC(=O)C1=CC=CC=C1C(=O)OCC

> <PUBCHEM_CACTVS_TPSA>
52.6

> <PUBCHEM_MONOISOTOPIC_WEIGHT>
222.089

> <PUBCHEM_TOTAL_CHARGE>
0

> <PUBCHEM_HEAVY_ATOM_COUNT>
16

> <PUBCHEM_ATOM_DEF_STEREO_COUNT>
0

> <PUBCHEM_ATOM_UDEF_STEREO_COUNT>
0

> <PUBCHEM_BOND_DEF_STEREO_COUNT>
0

> <PUBCHEM_BOND_UDEF_STEREO_COUNT>
0

> <PUBCHEM_ISOTOPIC_ATOM_COUNT>
0

> <PUBCHEM_COMPONENT_COUNT>
1

> <PUBCHEM_CACTVS_TAUTO_COUNT>
-1

> <PUBCHEM_COORDINATE_TYPE>
1
5
255

> <PUBCHEM_BONDANNOTATIONS>
11  12  8
5  6  8
5  7  8
6  8  8
7  12  8
8  11  8

$$$$
31423
  -OEChem-02061913062D

 16 19  0     0  0  0  0  0  0999 V2000
    3.7320    0.5000    0.0000 C   0  0  0  0  0  0  0  0  0  0  0  0
    3.7320   -0.5000    0.0000 C   0  0  0  0  0  0  0  0  0  0  0  0
    2.8660   -1.0000    0.0000 C   0  0  0  0  0  0  0  0  0  0  0  0
    2.8660    1.0000    0.0000 C   0  0  0  0  0  0  0  0  0  0  0  0
    4.6260   -1.0347    0.0000 C   0  0  0  0  0  0  0  0  0  0  0  0
    4.6260    1.0347    0.0000 C   0  0  0  0  0  0  0  0  0  0  0  0
    2.0000   -0.5000    0.0000 C   0  0  0  0  0  0  0  0  0  0  0  0
    2.0000    0.5000    0.0000 C   0  0  0  0  0  0  0  0  0  0  0  0
    5.5321   -0.5208    0.0000 C   0  0  0  0  0  0  0  0  0  0  0  0
    5.5321    0.5208    0.0000 C   0  0  0  0  0  0  0  0  0  0  0  0
    2.8648   -1.9917    0.0000 C   0  0  0  0  0  0  0  0  0  0  0  0
    2.8648    1.9917    0.0000 C   0  0  0  0  0  0  0  0  0  0  0  0
    4.5882   -2.0256    0.0000 C   0  0  0  0  0  0  0  0  0  0  0  0
    4.5882    2.0256    0.0000 C   0  0  0  0  0  0  0  0  0  0  0  0
    3.7168    2.4991    0.0000 C   0  0  0  0  0  0  0  0  0  0  0  0
    3.7168   -2.4991    0.0000 C   0  0  0  0  0  0  0  0  0  0  0  0
  1  2  1  0  0  0  0
  1  4  2  0  0  0  0
  1  6  1  0  0  0  0
  2  3  2  0  0  0  0
  2  5  1  0  0  0  0
  3  7  1  0  0  0  0
  3 11  1  0  0  0  0
  4  8  1  0  0  0  0
  4 12  1  0  0  0  0
  5  9  1  0  0  0  0
  5 13  2  0  0  0  0
  6 10  1  0  0  0  0
  6 14  2  0  0  0  0
  7  8  2  0  0  0  0
  9 10  2  0  0  0  0
 11 16  2  0  0  0  0
 12 15  2  0  0  0  0
 13 16  1  0  0  0  0
 14 15  1  0  0  0  0
M  END
> <PUBCHEM_COMPOUND_CID>
31423

> <PUBCHEM_COMPOUND_CANONICALIZED>
1

> <PUBCHEM_CACTVS_COMPLEXITY>
217

> <PUBCHEM_CACTVS_HBOND_ACCEPTOR>
0

> <PUBCHEM_CACTVS_HBOND_DONOR>
0

> <PUBCHEM_CACTVS_ROTATABLE_BOND>
0

> <PUBCHEM_CACTVS_SUBSKEYS>
AAADccB4AAAAAAAAAAAAAAAAAAAAAAAAAAAwYMGAAAAAAADBVAAAGAAAAAAADACAGAAwAMAAAACAAiBCAAACAAAgAAAIiAAAAIgIICKAERCAIAAggAAIiAcAgMAOwAACAAAQAACAAAQAACAAAAAAAAAAAA==

> <PUBCHEM_IUPAC_OPENEYE_NAME>
pyrene

> <PUBCHEM_IUPAC_CAS_NAME>
pyrene

> <PUBCHEM_IUPAC_NAME>
pyrene

> <PUBCHEM_IUPAC_SYSTEMATIC_NAME>
pyrene

> <PUBCHEM_IUPAC_TRADITIONAL_NAME>
pyrene

> <PUBCHEM_IUPAC_INCHI>
InChI=1S/C16H10/c1-3-11-7-9-13-5-2-6-14-10-8-12(4-1)15(11)16(13)14/h1-10H

> <PUBCHEM_IUPAC_INCHIKEY>
BBEAQIROQSPTKN-UHFFFAOYSA-N

> <PUBCHEM_XLOGP3>
4.9

> <PUBCHEM_EXACT_MASS>
202.078

> <PUBCHEM_MOLECULAR_FORMULA>
C16H10

> <PUBCHEM_MOLECULAR_WEIGHT>
202.256

> <PUBCHEM_OPENEYE_CAN_SMILES>
C1=CC2=C3C(=C1)C=CC4=CC=CC(=C43)C=C2

> <PUBCHEM_OPENEYE_ISO_SMILES>
C1=CC2=C3C(=C1)C=CC4=CC=CC(=C43)C=C2

> <PUBCHEM_CACTVS_TPSA>
0

> <PUBCHEM_MONOISOTOPIC_WEIGHT>
202.078

> <PUBCHEM_TOTAL_CHARGE>
0

> <PUBCHEM_HEAVY_ATOM_COUNT>
16

> <PUBCHEM_ATOM_DEF_STEREO_COUNT>
0

> <PUBCHEM_ATOM_UDEF_STEREO_COUNT>
0

> <PUBCHEM_BOND_DEF_STEREO_COUNT>
0

> <PUBCHEM_BOND_UDEF_STEREO_COUNT>
0

> <PUBCHEM_ISOTOPIC_ATOM_COUNT>
0

> <PUBCHEM_COMPONENT_COUNT>
1

> <PUBCHEM_CACTVS_TAUTO_COUNT>
-1

> <PUBCHEM_COORDINATE_TYPE>
1
5
255

> <PUBCHEM_BONDANNOTATIONS>
1  2  8
1  4  8
1  6  8
11  16  8
12  15  8
13  16  8
14  15  8
2  3  8
2  5  8
3  11  8
3  7  8
4  12  8
4  8  8
5  13  8
5  9  8
6  10  8
6  14  8
7  8  8
9  10  8

$$$$
8030
  -OEChem-02061913072D

  5  5  0     0  0  0  0  0  0999 V2000
    2.8090   -0.7694    0.0000 S   0  0  0  0  0  0  0  0  0  0  0  0
    3.3090    0.7694    0.0000 C   0  0  0  0  0  0  0  0  0  0  0  0
    2.3090    0.7694    0.0000 C   0  0  0  0  0  0  0  0  0  0  0  0
    3.6180   -0.1816    0.0000 C   0  0  0  0  0  0  0  0  0  0  0  0
    2.0000   -0.1816    0.0000 C   0  0  0  0  0  0  0  0  0  0  0  0
  1  4  1  0  0  0  0
  1  5  1  0  0  0  0
  2  3  1  0  0  0  0
  2  4  2  0  0  0  0
  3  5  2  0  0  0  0
M  END
> <PUBCHEM_COMPOUND_CID>
8030

> <PUBCHEM_COMPOUND_CANONICALIZED>
1

> <PUBCHEM_CACTVS_COMPLEXITY>
22.8

> <PUBCHEM_CACTVS_HBOND_ACCEPTOR>
1

> <PUBCHEM_CACTVS_HBOND_DONOR>
0

> <PUBCHEM_CACTVS_ROTATABLE_BOND>
0

> <PUBCHEM_CACTVS_SUBSKEYS>
AAADcYBgAABAAAAAAAAAAAAAAAAAASAAAAAAAAAAAAAAAAABgAAAGAQAAAAACACEUACwAYAAAAiEACBCAAADAIAgCBBIiBgAAIgIIAAgAQAAAAAAAAAgAAAAAAAAAAAAAAAAAAAAAAAAAAAAAAAAAAAAAA==

> <PUBCHEM_IUPAC_OPENEYE_NAME>
thiophene

> <PUBCHEM_IUPAC_CAS_NAME>
thiophene

> <PUBCHEM_IUPAC_NAME>
thiophene

> <PUBCHEM_IUPAC_SYSTEMATIC_NAME>
thiophene

> <PUBCHEM_IUPAC_TRADITIONAL_NAME>
thiophene

> <PUBCHEM_IUPAC_INCHI>
InChI=1S/C4H4S/c1-2-4-5-3-1/h1-4H

> <PUBCHEM_IUPAC_INCHIKEY>
YTPLMLYBLZKORZ-UHFFFAOYSA-N

> <PUBCHEM_XLOGP3>
1.8

> <PUBCHEM_EXACT_MASS>
84.003

> <PUBCHEM_MOLECULAR_FORMULA>
C4H4S

> <PUBCHEM_MOLECULAR_WEIGHT>
84.136

> <PUBCHEM_OPENEYE_CAN_SMILES>
C1=CSC=C1

> <PUBCHEM_OPENEYE_ISO_SMILES>
C1=CSC=C1

> <PUBCHEM_CACTVS_TPSA>
28.2

> <PUBCHEM_MONOISOTOPIC_WEIGHT>
84.003

> <PUBCHEM_TOTAL_CHARGE>
0

> <PUBCHEM_HEAVY_ATOM_COUNT>
5

> <PUBCHEM_ATOM_DEF_STEREO_COUNT>
0

> <PUBCHEM_ATOM_UDEF_STEREO_COUNT>
0

> <PUBCHEM_BOND_DEF_STEREO_COUNT>
0

> <PUBCHEM_BOND_UDEF_STEREO_COUNT>
0

> <PUBCHEM_ISOTOPIC_ATOM_COUNT>
0

> <PUBCHEM_COMPONENT_COUNT>
1

> <PUBCHEM_CACTVS_TAUTO_COUNT>
-1

> <PUBCHEM_COORDINATE_TYPE>
1
5
255

> <PUBCHEM_BONDANNOTATIONS>
1  4  8
1  5  8
2  3  8
2  4  8
3  5  8

$$$$
7463
  -OEChem-02061913072D

 10 10  0     0  0  0  0  0  0999 V2000
    2.8660    1.7500    0.0000 C   0  0  0  0  0  0  0  0  0  0  0  0
    2.8660    0.7500    0.0000 C   0  0  0  0  0  0  0  0  0  0  0  0
    3.7320    2.2500    0.0000 C   0  0  0  0  0  0  0  0  0  0  0  0
    2.0000    2.2500    0.0000 C   0  0  0  0  0  0  0  0  0  0  0  0
    3.7320    0.2500    0.0000 C   0  0  0  0  0  0  0  0  0  0  0  0
    2.0000    0.2500    0.0000 C   0  0  0  0  0  0  0  0  0  0  0  0
    2.8660   -1.2500    0.0000 C   0  0  0  0  0  0  0  0  0  0  0  0
    3.7320   -0.7500    0.0000 C   0  0  0  0  0  0  0  0  0  0  0  0
    2.0000   -0.7500    0.0000 C   0  0  0  0  0  0  0  0  0  0  0  0
    2.8660   -2.2500    0.0000 C   0  0  0  0  0  0  0  0  0  0  0  0
  1  2  1  0  0  0  0
  1  3  1  0  0  0  0
  1  4  1  0  0  0  0
  2  5  2  0  0  0  0
  2  6  1  0  0  0  0
  5  8  1  0  0  0  0
  6  9  2  0  0  0  0
  7  8  2  0  0  0  0
  7  9  1  0  0  0  0
  7 10  1  0  0  0  0
M  END
> <PUBCHEM_COMPOUND_CID>
7463

> <PUBCHEM_COMPOUND_CANONICALIZED>
1

> <PUBCHEM_CACTVS_COMPLEXITY>
86.2

> <PUBCHEM_CACTVS_HBOND_ACCEPTOR>
0

> <PUBCHEM_CACTVS_HBOND_DONOR>
0

> <PUBCHEM_CACTVS_ROTATABLE_BOND>
1

> <PUBCHEM_CACTVS_SUBSKEYS>
AAADccBwAAAAAAAAAAAAAAAAAAAAAAAAAAAwAAAAAAAAAAABAAAAGAAAAAAADQCAGAAyAIAAAACAAiBCAAACAAAgAAAIiAAAAIgIICKAERCAIAAggAAIiAcAgMAOwAAAAAAAAACAAAAAAAAAAAAAAAAAAA==

> <PUBCHEM_IUPAC_OPENEYE_NAME>
1-isopropyl-4-methyl-benzene

> <PUBCHEM_IUPAC_CAS_NAME>
1-methyl-4-propan-2-ylbenzene

> <PUBCHEM_IUPAC_NAME>
1-methyl-4-propan-2-ylbenzene

> <PUBCHEM_IUPAC_SYSTEMATIC_NAME>
1-methyl-4-propan-2-yl-benzene

> <PUBCHEM_IUPAC_TRADITIONAL_NAME>
p-cymene

> <PUBCHEM_IUPAC_INCHI>
InChI=1S/C10H14/c1-8(2)10-6-4-9(3)5-7-10/h4-8H,1-3H3

> <PUBCHEM_IUPAC_INCHIKEY>
HFPZCAJZSCWRBC-UHFFFAOYSA-N

> <PUBCHEM_XLOGP3>
4.1

> <PUBCHEM_EXACT_MASS>
134.11

> <PUBCHEM_MOLECULAR_FORMULA>
C10H14

> <PUBCHEM_MOLECULAR_WEIGHT>
134.222

> <PUBCHEM_OPENEYE_CAN_SMILES>
CC1=CC=C(C=C1)C(C)C

> <PUBCHEM_OPENEYE_ISO_SMILES>
CC1=CC=C(C=C1)C(C)C

> <PUBCHEM_CACTVS_TPSA>
0

> <PUBCHEM_MONOISOTOPIC_WEIGHT>
134.11

> <PUBCHEM_TOTAL_CHARGE>
0

> <PUBCHEM_HEAVY_ATOM_COUNT>
10

> <PUBCHEM_ATOM_DEF_STEREO_COUNT>
0

> <PUBCHEM_ATOM_UDEF_STEREO_COUNT>
0

> <PUBCHEM_BOND_DEF_STEREO_COUNT>
0

> <PUBCHEM_BOND_UDEF_STEREO_COUNT>
0

> <PUBCHEM_ISOTOPIC_ATOM_COUNT>
0

> <PUBCHEM_COMPONENT_COUNT>
1

> <PUBCHEM_CACTVS_TAUTO_COUNT>
-1

> <PUBCHEM_COORDINATE_TYPE>
1
5
255

> <PUBCHEM_BONDANNOTATIONS>
2  5  8
2  6  8
5  8  8
6  9  8
7  8  8
7  9  8

$$$$
440968
  -OEChem-02061913092D

 10 11  0     1  0  0  0  0  0999 V2000
    5.4490   -0.0329    0.0000 C   0  0  0  0  0  0  0  0  0  0  0  0
    4.3089    0.9242    0.0000 C   0  0  2  0  0  0  0  0  0  0  0  0
    4.0501   -0.0417    0.0000 C   0  0  1  0  0  0  0  0  0  0  0  0
    3.5723    1.9068    0.0000 C   0  0  0  0  0  0  0  0  0  0  0  0
    2.2756    0.6130    0.0000 C   0  0  0  0  0  0  0  0  0  0  0  0
    2.8290   -0.9074    0.0000 C   0  0  0  0  0  0  0  0  0  0  0  0
    6.3150    0.4671    0.0000 C   0  0  0  0  0  0  0  0  0  0  0  0
    5.9490   -0.8990    0.0000 C   0  0  0  0  0  0  0  0  0  0  0  0
    2.0000   -0.3482    0.0000 C   0  0  0  0  0  0  0  0  0  0  0  0
    2.8639   -1.9068    0.0000 C   0  0  0  0  0  0  0  0  0  0  0  0
  1  2  1  0  0  0  0
  1  3  1  0  0  0  0
  1  7  1  0  0  0  0
  1  8  1  0  0  0  0
  2  4  1  0  0  0  0
  2  5  1  0  0  0  0
  3  4  1  0  0  0  0
  3  6  1  0  0  0  0
  5  9  1  0  0  0  0
  6  9  2  0  0  0  0
  6 10  1  0  0  0  0
M  END
> <PUBCHEM_COMPOUND_CID>
440968

> <PUBCHEM_COMPOUND_CANONICALIZED>
1

> <PUBCHEM_CACTVS_COMPLEXITY>
186

> <PUBCHEM_CACTVS_HBOND_ACCEPTOR>
0

> <PUBCHEM_CACTVS_HBOND_DONOR>
0

> <PUBCHEM_CACTVS_ROTATABLE_BOND>
0

> <PUBCHEM_CACTVS_SUBSKEYS>
AAADceBwAAAAAAAAAAAAAAAAAABgAAAAAAAgQAAAAAAAAAAAAAAAGAAAAAAADwCAAAACAAAAAACAAiBCAAAAAAAgAAAACAAAAAgAAAIAAQAAAAAAgAAIAAMAgEAPgAAAAAAAAAAAAAAAAAAAAAAAAAAAAA==

> <PUBCHEM_IUPAC_OPENEYE_NAME>
(1~{S},5~{S})-2,6,6-trimethylbicyclo[3.1.1]hept-2-ene

> <PUBCHEM_IUPAC_CAS_NAME>
(1~{S},5~{S})-2,6,6-trimethylbicyclo[3.1.1]hept-2-ene

> <PUBCHEM_IUPAC_NAME>
(1~{S},5~{S})-2,6,6-trimethylbicyclo[3.1.1]hept-2-ene

> <PUBCHEM_IUPAC_SYSTEMATIC_NAME>
(1~{S},5~{S})-2,6,6-trimethylbicyclo[3.1.1]hept-2-ene

> <PUBCHEM_IUPAC_TRADITIONAL_NAME>
(1~{S},5~{S})-2,6,6-trimethylbicyclo[3.1.1]hept-2-ene

> <PUBCHEM_IUPAC_INCHI>
InChI=1S/C10H16/c1-7-4-5-8-6-9(7)10(8,2)3/h4,8-9H,5-6H2,1-3H3/t8-,9-/m0/s1

> <PUBCHEM_IUPAC_INCHIKEY>
GRWFGVWFFZKLTI-IUCAKERBSA-N

> <PUBCHEM_XLOGP3_AA>
2.8

> <PUBCHEM_EXACT_MASS>
136.125

> <PUBCHEM_MOLECULAR_FORMULA>
C10H16

> <PUBCHEM_MOLECULAR_WEIGHT>
136.238

> <PUBCHEM_OPENEYE_CAN_SMILES>
CC1=CCC2CC1C2(C)C

> <PUBCHEM_OPENEYE_ISO_SMILES>
CC1=CC[C@H]2C[C@@H]1C2(C)C

> <PUBCHEM_CACTVS_TPSA>
0

> <PUBCHEM_MONOISOTOPIC_WEIGHT>
136.125

> <PUBCHEM_TOTAL_CHARGE>
0

> <PUBCHEM_HEAVY_ATOM_COUNT>
10

> <PUBCHEM_ATOM_DEF_STEREO_COUNT>
2

> <PUBCHEM_ATOM_UDEF_STEREO_COUNT>
0

> <PUBCHEM_BOND_DEF_STEREO_COUNT>
0

> <PUBCHEM_BOND_UDEF_STEREO_COUNT>
0

> <PUBCHEM_ISOTOPIC_ATOM_COUNT>
0

> <PUBCHEM_COMPONENT_COUNT>
1

> <PUBCHEM_CACTVS_TAUTO_COUNT>
-1

> <PUBCHEM_COORDINATE_TYPE>
1
5
255

> <PUBCHEM_BONDANNOTATIONS>
2  11  6
3  12  5

$$$$
6654
  -OEChem-02061913062D

 10 11  0     1  0  0  0  0  0999 V2000
    5.4490   -0.0329    0.0000 C   0  0  0  0  0  0  0  0  0  0  0  0
    4.3089    0.9242    0.0000 C   0  0  3  0  0  0  0  0  0  0  0  0
    4.0501   -0.0417    0.0000 C   0  0  3  0  0  0  0  0  0  0  0  0
    3.5723    1.9068    0.0000 C   0  0  0  0  0  0  0  0  0  0  0  0
    2.2756    0.6130    0.0000 C   0  0  0  0  0  0  0  0  0  0  0  0
    2.8290   -0.9074    0.0000 C   0  0  0  0  0  0  0  0  0  0  0  0
    5.9490   -0.8990    0.0000 C   0  0  0  0  0  0  0  0  0  0  0  0
    6.3150    0.4671    0.0000 C   0  0  0  0  0  0  0  0  0  0  0  0
    2.0000   -0.3482    0.0000 C   0  0  0  0  0  0  0  0  0  0  0  0
    2.8639   -1.9068    0.0000 C   0  0  0  0  0  0  0  0  0  0  0  0
  1  2  1  0  0  0  0
  1  3  1  0  0  0  0
  1  7  1  0  0  0  0
  1  8  1  0  0  0  0
  2  4  1  0  0  0  0
  2  5  1  0  0  0  0
  3  4  1  0  0  0  0
  3  6  1  0  0  0  0
  5  9  1  0  0  0  0
  6  9  2  0  0  0  0
  6 10  1  0  0  0  0
M  END
> <PUBCHEM_COMPOUND_CID>
6654

> <PUBCHEM_COMPOUND_CANONICALIZED>
1

> <PUBCHEM_CACTVS_COMPLEXITY>
186

> <PUBCHEM_CACTVS_HBOND_ACCEPTOR>
0

> <PUBCHEM_CACTVS_HBOND_DONOR>
0

> <PUBCHEM_CACTVS_ROTATABLE_BOND>
0

> <PUBCHEM_CACTVS_SUBSKEYS>
AAADceBwAAAAAAAAAAAAAAAAAABgAAAAAAAgQAAAAAAAAAAAAAAAGAAAAAAADwCAAAACAAAAAACAAiBCAAAAAAAgAAAACAAAAAgAAAIAAQAAAAAAgAAIAAMAgEAPgAAAAAAAAAAAAAAAAAAAAAAAAAAAAA==

> <PUBCHEM_IUPAC_OPENEYE_NAME>
2,6,6-trimethylbicyclo[3.1.1]hept-2-ene

> <PUBCHEM_IUPAC_CAS_NAME>
2,6,6-trimethylbicyclo[3.1.1]hept-2-ene

> <PUBCHEM_IUPAC_NAME>
2,6,6-trimethylbicyclo[3.1.1]hept-2-ene

> <PUBCHEM_IUPAC_SYSTEMATIC_NAME>
2,6,6-trimethylbicyclo[3.1.1]hept-2-ene

> <PUBCHEM_IUPAC_TRADITIONAL_NAME>
2,6,6-trimethylbicyclo[3.1.1]hept-2-ene

> <PUBCHEM_IUPAC_INCHI>
InChI=1S/C10H16/c1-7-4-5-8-6-9(7)10(8,2)3/h4,8-9H,5-6H2,1-3H3

> <PUBCHEM_IUPAC_INCHIKEY>
GRWFGVWFFZKLTI-UHFFFAOYSA-N

> <PUBCHEM_XLOGP3_AA>
2.8

> <PUBCHEM_EXACT_MASS>
136.125

> <PUBCHEM_MOLECULAR_FORMULA>
C10H16

> <PUBCHEM_MOLECULAR_WEIGHT>
136.238

> <PUBCHEM_OPENEYE_CAN_SMILES>
CC1=CCC2CC1C2(C)C

> <PUBCHEM_OPENEYE_ISO_SMILES>
CC1=CCC2CC1C2(C)C

> <PUBCHEM_CACTVS_TPSA>
0

> <PUBCHEM_MONOISOTOPIC_WEIGHT>
136.125

> <PUBCHEM_TOTAL_CHARGE>
0

> <PUBCHEM_HEAVY_ATOM_COUNT>
10

> <PUBCHEM_ATOM_DEF_STEREO_COUNT>
0

> <PUBCHEM_ATOM_UDEF_STEREO_COUNT>
2

> <PUBCHEM_BOND_DEF_STEREO_COUNT>
0

> <PUBCHEM_BOND_UDEF_STEREO_COUNT>
0

> <PUBCHEM_ISOTOPIC_ATOM_COUNT>
0

> <PUBCHEM_COMPONENT_COUNT>
1

> <PUBCHEM_CACTVS_TAUTO_COUNT>
-1

> <PUBCHEM_COORDINATE_TYPE>
1
5
255

> <PUBCHEM_BONDANNOTATIONS>
2  11  3
3  12  3

$$$$
7360
  -OEChem-02061913072D

  7  7  0     1  0  0  0  0  0999 V2000
    2.8090   -0.3239    0.0000 O   0  0  0  0  0  0  0  0  0  0  0  0
    4.7770   -1.0233    0.0000 O   0  0  0  0  0  0  0  0  0  0  0  0
    3.6180    0.2638    0.0000 C   0  0  3  0  0  0  0  0  0  0  0  0
    3.3090    1.2149    0.0000 C   0  0  0  0  0  0  0  0  0  0  0  0
    2.3090    1.2149    0.0000 C   0  0  0  0  0  0  0  0  0  0  0  0
    2.0000    0.2638    0.0000 C   0  0  0  0  0  0  0  0  0  0  0  0
    4.5691   -0.0452    0.0000 C   0  0  0  0  0  0  0  0  0  0  0  0
  1  3  1  0  0  0  0
  1  6  1  0  0  0  0
  2  7  1  0  0  0  0
  3  4  1  0  0  0  0
  3  7  1  0  0  0  0
  4  5  1  0  0  0  0
  5  6  1  0  0  0  0
M  END
> <PUBCHEM_COMPOUND_CID>
7360

> <PUBCHEM_COMPOUND_CANONICALIZED>
1

> <PUBCHEM_CACTVS_COMPLEXITY>
54

> <PUBCHEM_CACTVS_HBOND_ACCEPTOR>
2

> <PUBCHEM_CACTVS_HBOND_DONOR>
1

> <PUBCHEM_CACTVS_ROTATABLE_BOND>
1

> <PUBCHEM_CACTVS_SUBSKEYS>
AAADccBgMAAAAAAAAAAAAAAAAAAAASAAAAAAAAAAAAAAAAAAAAAAGgAACAAACBSggAIAAAAABgAAAAAAAAAAAAAAAAAAAAAAAAABEAIAAAACQAAEAAADAACAIAAAAAAAAAAAAAAAAAAAAAAAAAAAAAAAAA==

> <PUBCHEM_IUPAC_OPENEYE_NAME>
tetrahydrofuran-2-ylmethanol

> <PUBCHEM_IUPAC_CAS_NAME>
2-oxolanylmethanol

> <PUBCHEM_IUPAC_NAME>
oxolan-2-ylmethanol

> <PUBCHEM_IUPAC_SYSTEMATIC_NAME>
oxolan-2-ylmethanol

> <PUBCHEM_IUPAC_TRADITIONAL_NAME>
tetrahydrofurylmethanol

> <PUBCHEM_IUPAC_INCHI>
InChI=1S/C5H10O2/c6-4-5-2-1-3-7-5/h5-6H,1-4H2

> <PUBCHEM_IUPAC_INCHIKEY>
BSYVTEYKTMYBMK-UHFFFAOYSA-N

> <PUBCHEM_XLOGP3_AA>
-0.1

> <PUBCHEM_EXACT_MASS>
102.068

> <PUBCHEM_MOLECULAR_FORMULA>
C5H10O2

> <PUBCHEM_MOLECULAR_WEIGHT>
102.133

> <PUBCHEM_OPENEYE_CAN_SMILES>
C1CC(OC1)CO

> <PUBCHEM_OPENEYE_ISO_SMILES>
C1CC(OC1)CO

> <PUBCHEM_CACTVS_TPSA>
29.5

> <PUBCHEM_MONOISOTOPIC_WEIGHT>
102.068

> <PUBCHEM_TOTAL_CHARGE>
0

> <PUBCHEM_HEAVY_ATOM_COUNT>
7

> <PUBCHEM_ATOM_DEF_STEREO_COUNT>
0

> <PUBCHEM_ATOM_UDEF_STEREO_COUNT>
1

> <PUBCHEM_BOND_DEF_STEREO_COUNT>
0

> <PUBCHEM_BOND_UDEF_STEREO_COUNT>
0

> <PUBCHEM_ISOTOPIC_ATOM_COUNT>
0

> <PUBCHEM_COMPONENT_COUNT>
1

> <PUBCHEM_CACTVS_TAUTO_COUNT>
-1

> <PUBCHEM_COORDINATE_TYPE>
1
5
255

> <PUBCHEM_BONDANNOTATIONS>
3  8  3

$$$$
1017
  -OEChem-02061913062D

 12 12  0     0  0  0  0  0  0999 V2000
    6.0010    1.4400    0.0000 O   0  0  0  0  0  0  0  0  0  0  0  0
    2.5369   -0.5600    0.0000 O   0  0  0  0  0  0  0  0  0  0  0  0
    3.4030    0.9400    0.0000 O   0  0  0  0  0  0  0  0  0  0  0  0
    4.2690    1.4400    0.0000 O   0  0  0  0  0  0  0  0  0  0  0  0
    5.1350   -0.0600    0.0000 C   0  0  0  0  0  0  0  0  0  0  0  0
    4.2690   -0.5600    0.0000 C   0  0  0  0  0  0  0  0  0  0  0  0
    6.0010   -0.5600    0.0000 C   0  0  0  0  0  0  0  0  0  0  0  0
    4.2690   -1.5600    0.0000 C   0  0  0  0  0  0  0  0  0  0  0  0
    5.1350   -2.0600    0.0000 C   0  0  0  0  0  0  0  0  0  0  0  0
    6.0010   -1.5600    0.0000 C   0  0  0  0  0  0  0  0  0  0  0  0
    5.1350    0.9400    0.0000 C   0  0  0  0  0  0  0  0  0  0  0  0
    3.4030   -0.0600    0.0000 C   0  0  0  0  0  0  0  0  0  0  0  0
  1 11  1  0  0  0  0
  2 12  1  0  0  0  0
  3 12  2  0  0  0  0
  4 11  2  0  0  0  0
  5  6  1  0  0  0  0
  5  7  2  0  0  0  0
  5 11  1  0  0  0  0
  6  8  2  0  0  0  0
  6 12  1  0  0  0  0
  7 10  1  0  0  0  0
  8  9  1  0  0  0  0
  9 10  2  0  0  0  0
M  END
> <PUBCHEM_COMPOUND_CID>
1017

> <PUBCHEM_COMPOUND_CANONICALIZED>
1

> <PUBCHEM_CACTVS_COMPLEXITY>
177

> <PUBCHEM_CACTVS_HBOND_ACCEPTOR>
4

> <PUBCHEM_CACTVS_HBOND_DONOR>
2

> <PUBCHEM_CACTVS_ROTATABLE_BOND>
2

> <PUBCHEM_CACTVS_SUBSKEYS>
AAADcYBwOAAAAAAAAAAAAAAAAAAAAAAAAAAwAAAAAAAAAAABAAAAGgAACAAADACAmAAwCIAAAgCIAiDSCAACAAAkAAAIiAEACMgIJjKAFRCAcQAkwAEImYfLyKCOgAAAAAAQAAAAAAAAACAAAAAAAAAAAA==

> <PUBCHEM_IUPAC_OPENEYE_NAME>
phthalic acid

> <PUBCHEM_IUPAC_CAS_NAME>
phthalic acid

> <PUBCHEM_IUPAC_NAME>
phthalic acid

> <PUBCHEM_IUPAC_SYSTEMATIC_NAME>
phthalic acid

> <PUBCHEM_IUPAC_TRADITIONAL_NAME>
phthalic acid

> <PUBCHEM_IUPAC_INCHI>
InChI=1S/C8H6O4/c9-7(10)5-3-1-2-4-6(5)8(11)12/h1-4H,(H,9,10)(H,11,12)

> <PUBCHEM_IUPAC_INCHIKEY>
XNGIFLGASWRNHJ-UHFFFAOYSA-N

> <PUBCHEM_XLOGP3>
0.7

> <PUBCHEM_EXACT_MASS>
166.027

> <PUBCHEM_MOLECULAR_FORMULA>
C8H6O4

> <PUBCHEM_MOLECULAR_WEIGHT>
166.132

> <PUBCHEM_OPENEYE_CAN_SMILES>
C1=CC=C(C(=C1)C(=O)O)C(=O)O

> <PUBCHEM_OPENEYE_ISO_SMILES>
C1=CC=C(C(=C1)C(=O)O)C(=O)O

> <PUBCHEM_CACTVS_TPSA>
74.6

> <PUBCHEM_MONOISOTOPIC_WEIGHT>
166.027

> <PUBCHEM_TOTAL_CHARGE>
0

> <PUBCHEM_HEAVY_ATOM_COUNT>
12

> <PUBCHEM_ATOM_DEF_STEREO_COUNT>
0

> <PUBCHEM_ATOM_UDEF_STEREO_COUNT>
0

> <PUBCHEM_BOND_DEF_STEREO_COUNT>
0

> <PUBCHEM_BOND_UDEF_STEREO_COUNT>
0

> <PUBCHEM_ISOTOPIC_ATOM_COUNT>
0

> <PUBCHEM_COMPONENT_COUNT>
1

> <PUBCHEM_CACTVS_TAUTO_COUNT>
-1

> <PUBCHEM_COORDINATE_TYPE>
1
5
255

> <PUBCHEM_BONDANNOTATIONS>
5  6  8
5  7  8
6  8  8
7  10  8
8  9  8
9  10  8

$$$$
89594
  -OEChem-02061913052D

 12 13  0     1  0  0  0  0  0999 V2000
    2.9511    1.3184    0.0000 N   0  0  3  0  0  0  0  0  0  0  0  0
    4.6261   -1.7694    0.0000 N   0  0  0  0  0  0  0  0  0  0  0  0
    3.7601    0.7306    0.0000 C   0  0  1  0  0  0  0  0  0  0  0  0
    4.5691    1.3184    0.0000 C   0  0  0  0  0  0  0  0  0  0  0  0
    4.2601    2.2694    0.0000 C   0  0  0  0  0  0  0  0  0  0  0  0
    3.2601    2.2694    0.0000 C   0  0  0  0  0  0  0  0  0  0  0  0
    3.7601   -0.2694    0.0000 C   0  0  0  0  0  0  0  0  0  0  0  0
    2.0000    1.0094    0.0000 C   0  0  0  0  0  0  0  0  0  0  0  0
    2.8940   -0.7694    0.0000 C   0  0  0  0  0  0  0  0  0  0  0  0
    4.6261   -0.7694    0.0000 C   0  0  0  0  0  0  0  0  0  0  0  0
    2.8940   -1.7694    0.0000 C   0  0  0  0  0  0  0  0  0  0  0  0
    3.7601   -2.2694    0.0000 C   0  0  0  0  0  0  0  0  0  0  0  0
  1  3  1  0  0  0  0
  1  6  1  0  0  0  0
  1  8  1  0  0  0  0
  2 10  1  0  0  0  0
  2 12  2  0  0  0  0
  3  4  1  0  0  0  0
  3  7  1  1  0  0  0
  4  5  1  0  0  0  0
  5  6  1  0  0  0  0
  7  9  1  0  0  0  0
  7 10  2  0  0  0  0
  9 11  2  0  0  0  0
 11 12  1  0  0  0  0
M  END
> <PUBCHEM_COMPOUND_CID>
89594

> <PUBCHEM_COMPOUND_CANONICALIZED>
1

> <PUBCHEM_CACTVS_COMPLEXITY>
147

> <PUBCHEM_CACTVS_HBOND_ACCEPTOR>
2

> <PUBCHEM_CACTVS_HBOND_DONOR>
0

> <PUBCHEM_CACTVS_ROTATABLE_BOND>
1

> <PUBCHEM_CACTVS_SUBSKEYS>
AAADccBzAAAAAAAAAAAAAAAAAAAAAWAAAAAsAAAAAAAAAAABgAAAHAAAAAAADCjBGgQ+gJMIEACgAjBnRACCgCAxAiAI2CA4ZJgIIOLA0ZGEIAhggADIyAcQgIAOAAAAAAAAAAAAAAAAAAAAAAAAAAAAAA==

> <PUBCHEM_IUPAC_OPENEYE_NAME>
3-[(2~{S})-1-methylpyrrolidin-2-yl]pyridine

> <PUBCHEM_IUPAC_CAS_NAME>
3-[(2~{S})-1-methyl-2-pyrrolidinyl]pyridine

> <PUBCHEM_IUPAC_NAME>
3-[(2~{S})-1-methylpyrrolidin-2-yl]pyridine

> <PUBCHEM_IUPAC_SYSTEMATIC_NAME>
3-[(2~{S})-1-methylpyrrolidin-2-yl]pyridine

> <PUBCHEM_IUPAC_TRADITIONAL_NAME>
3-[(2~{S})-1-methylpyrrolidin-2-yl]pyridine

> <PUBCHEM_IUPAC_INCHI>
InChI=1S/C10H14N2/c1-12-7-3-5-10(12)9-4-2-6-11-8-9/h2,4,6,8,10H,3,5,7H2,1H3/t10-/m0/s1

> <PUBCHEM_IUPAC_INCHIKEY>
SNICXCGAKADSCV-JTQLQIEISA-N

> <PUBCHEM_XLOGP3>
1.2

> <PUBCHEM_EXACT_MASS>
162.116

> <PUBCHEM_MOLECULAR_FORMULA>
C10H14N2

> <PUBCHEM_MOLECULAR_WEIGHT>
162.236

> <PUBCHEM_OPENEYE_CAN_SMILES>
CN1CCCC1C2=CN=CC=C2

> <PUBCHEM_OPENEYE_ISO_SMILES>
CN1CCC[C@H]1C2=CN=CC=C2

> <PUBCHEM_CACTVS_TPSA>
16.1

> <PUBCHEM_MONOISOTOPIC_WEIGHT>
162.116

> <PUBCHEM_TOTAL_CHARGE>
0

> <PUBCHEM_HEAVY_ATOM_COUNT>
12

> <PUBCHEM_ATOM_DEF_STEREO_COUNT>
1

> <PUBCHEM_ATOM_UDEF_STEREO_COUNT>
0

> <PUBCHEM_BOND_DEF_STEREO_COUNT>
0

> <PUBCHEM_BOND_UDEF_STEREO_COUNT>
0

> <PUBCHEM_ISOTOPIC_ATOM_COUNT>
0

> <PUBCHEM_COMPONENT_COUNT>
1

> <PUBCHEM_CACTVS_TAUTO_COUNT>
-1

> <PUBCHEM_COORDINATE_TYPE>
1
5
255

> <PUBCHEM_BONDANNOTATIONS>
11  12  8
2  10  8
2  12  8
3  7  5
7  10  8
7  9  8
9  11  8

$$$$
1140
  -OEChem-02061913062D

  7  7  0     0  0  0  0  0  0999 V2000
    2.8660    0.5000    0.0000 C   0  0  0  0  0  0  0  0  0  0  0  0
    2.0000    0.0000    0.0000 C   0  0  0  0  0  0  0  0  0  0  0  0
    3.7320   -0.0000    0.0000 C   0  0  0  0  0  0  0  0  0  0  0  0
    2.8660    1.5000    0.0000 C   0  0  0  0  0  0  0  0  0  0  0  0
    2.0000   -1.0000    0.0000 C   0  0  0  0  0  0  0  0  0  0  0  0
    3.7320   -1.0000    0.0000 C   0  0  0  0  0  0  0  0  0  0  0  0
    2.8660   -1.5000    0.0000 C   0  0  0  0  0  0  0  0  0  0  0  0
  1  2  2  0  0  0  0
  1  3  1  0  0  0  0
  1  4  1  0  0  0  0
  2  5  1  0  0  0  0
  3  6  2  0  0  0  0
  5  7  2  0  0  0  0
  6  7  1  0  0  0  0
M  END
> <PUBCHEM_COMPOUND_CID>
1140

> <PUBCHEM_COMPOUND_CANONICALIZED>
1

> <PUBCHEM_CACTVS_COMPLEXITY>
42

> <PUBCHEM_CACTVS_HBOND_ACCEPTOR>
0

> <PUBCHEM_CACTVS_HBOND_DONOR>
0

> <PUBCHEM_CACTVS_ROTATABLE_BOND>
0

> <PUBCHEM_CACTVS_SUBSKEYS>
AAADccBgAAAAAAAAAAAAAAAAAAAAAAAAAAAwAAAAAAAAAAABAAAAGAAAAAAADACAGAAyAIAAAACAAiBCAAACAAAgAAAIiAAAAIgIICKAERCAIAAggAAIiAcAgAAOAAAAAAAAAAAAAAAAAAAAAAAAAAAAAA==

> <PUBCHEM_IUPAC_OPENEYE_NAME>
toluene

> <PUBCHEM_IUPAC_CAS_NAME>
toluene

> <PUBCHEM_IUPAC_NAME>
toluene

> <PUBCHEM_IUPAC_SYSTEMATIC_NAME>
methylbenzene

> <PUBCHEM_IUPAC_TRADITIONAL_NAME>
toluene

> <PUBCHEM_IUPAC_INCHI>
InChI=1S/C7H8/c1-7-5-3-2-4-6-7/h2-6H,1H3

> <PUBCHEM_IUPAC_INCHIKEY>
YXFVVABEGXRONW-UHFFFAOYSA-N

> <PUBCHEM_XLOGP3>
2.7

> <PUBCHEM_EXACT_MASS>
92.063

> <PUBCHEM_MOLECULAR_FORMULA>
C7H8

> <PUBCHEM_MOLECULAR_WEIGHT>
92.141

> <PUBCHEM_OPENEYE_CAN_SMILES>
CC1=CC=CC=C1

> <PUBCHEM_OPENEYE_ISO_SMILES>
CC1=CC=CC=C1

> <PUBCHEM_CACTVS_TPSA>
0

> <PUBCHEM_MONOISOTOPIC_WEIGHT>
92.063

> <PUBCHEM_TOTAL_CHARGE>
0

> <PUBCHEM_HEAVY_ATOM_COUNT>
7

> <PUBCHEM_ATOM_DEF_STEREO_COUNT>
0

> <PUBCHEM_ATOM_UDEF_STEREO_COUNT>
0

> <PUBCHEM_BOND_DEF_STEREO_COUNT>
0

> <PUBCHEM_BOND_UDEF_STEREO_COUNT>
0

> <PUBCHEM_ISOTOPIC_ATOM_COUNT>
0

> <PUBCHEM_COMPONENT_COUNT>
1

> <PUBCHEM_CACTVS_TAUTO_COUNT>
-1

> <PUBCHEM_COORDINATE_TYPE>
1
5
255

> <PUBCHEM_BONDANNOTATIONS>
1  2  8
1  3  8
2  5  8
3  6  8
5  7  8
6  7  8

$$$$
8078
  -OEChem-02061913072D

  6  6  0     0  0  0  0  0  0999 V2000
    2.8660    1.0000    0.0000 C   0  0  0  0  0  0  0  0  0  0  0  0
    3.7320   -0.5000    0.0000 C   0  0  0  0  0  0  0  0  0  0  0  0
    2.0000    0.5000    0.0000 C   0  0  0  0  0  0  0  0  0  0  0  0
    2.8660   -1.0000    0.0000 C   0  0  0  0  0  0  0  0  0  0  0  0
    2.0000   -0.5000    0.0000 C   0  0  0  0  0  0  0  0  0  0  0  0
    3.7320    0.5000    0.0000 C   0  0  0  0  0  0  0  0  0  0  0  0
  1  3  1  0  0  0  0
  1  6  1  0  0  0  0
  2  4  1  0  0  0  0
  2  6  1  0  0  0  0
  3  5  1  0  0  0  0
  4  5  1  0  0  0  0
M  END
> <PUBCHEM_COMPOUND_CID>
8078

> <PUBCHEM_COMPOUND_CANONICALIZED>
1

> <PUBCHEM_CACTVS_COMPLEXITY>
15.5

> <PUBCHEM_CACTVS_HBOND_ACCEPTOR>
0

> <PUBCHEM_CACTVS_HBOND_DONOR>
0

> <PUBCHEM_CACTVS_ROTATABLE_BOND>
0

> <PUBCHEM_CACTVS_SUBSKEYS>
AAADccBgAAAAAAAAAAAAAAAAAAAAAAAAAAAwAAAAAAAAAAAAAAAAGAAAAAAACACAAAAAAAAAAAAAAAAAAAAAAAAAAAAAAAAAAAAAAAIAAAAAAAAAAAAAAAEAAAAAAAAAAAAAAAAAAAAAAAAAAAAAAAAAAA==

> <PUBCHEM_IUPAC_OPENEYE_NAME>
cyclohexane

> <PUBCHEM_IUPAC_CAS_NAME>
cyclohexane

> <PUBCHEM_IUPAC_NAME>
cyclohexane

> <PUBCHEM_IUPAC_SYSTEMATIC_NAME>
cyclohexane

> <PUBCHEM_IUPAC_TRADITIONAL_NAME>
cyclohexane

> <PUBCHEM_IUPAC_INCHI>
InChI=1S/C6H12/c1-2-4-6-5-3-1/h1-6H2

> <PUBCHEM_IUPAC_INCHIKEY>
XDTMQSROBMDMFD-UHFFFAOYSA-N

> <PUBCHEM_XLOGP3>
3.4

> <PUBCHEM_EXACT_MASS>
84.094

> <PUBCHEM_MOLECULAR_FORMULA>
C6H12

> <PUBCHEM_MOLECULAR_WEIGHT>
84.162

> <PUBCHEM_OPENEYE_CAN_SMILES>
C1CCCCC1

> <PUBCHEM_OPENEYE_ISO_SMILES>
C1CCCCC1

> <PUBCHEM_CACTVS_TPSA>
0

> <PUBCHEM_MONOISOTOPIC_WEIGHT>
84.094

> <PUBCHEM_TOTAL_CHARGE>
0

> <PUBCHEM_HEAVY_ATOM_COUNT>
6

> <PUBCHEM_ATOM_DEF_STEREO_COUNT>
0

> <PUBCHEM_ATOM_UDEF_STEREO_COUNT>
0

> <PUBCHEM_BOND_DEF_STEREO_COUNT>
0

> <PUBCHEM_BOND_UDEF_STEREO_COUNT>
0

> <PUBCHEM_ISOTOPIC_ATOM_COUNT>
0

> <PUBCHEM_COMPONENT_COUNT>
1

> <PUBCHEM_CACTVS_TAUTO_COUNT>
-1

> <PUBCHEM_COORDINATE_TYPE>
1
5
255

$$$$
7922
  -OEChem-02061913072D

  7  7  0     0  0  0  0  0  0999 V2000
    3.7601   -0.7694    0.0000 O   0  0  0  0  0  0  0  0  0  0  0  0
    5.5202   -0.4907    0.0000 O   0  0  0  0  0  0  0  0  0  0  0  0
    2.0000   -0.4907    0.0000 O   0  0  0  0  0  0  0  0  0  0  0  0
    4.2601    0.7694    0.0000 C   0  0  0  0  0  0  0  0  0  0  0  0
    3.2601    0.7694    0.0000 C   0  0  0  0  0  0  0  0  0  0  0  0
    4.5691   -0.1816    0.0000 C   0  0  0  0  0  0  0  0  0  0  0  0
    2.9511   -0.1816    0.0000 C   0  0  0  0  0  0  0  0  0  0  0  0
  1  6  1  0  0  0  0
  1  7  1  0  0  0  0
  2  6  2  0  0  0  0
  3  7  2  0  0  0  0
  4  5  1  0  0  0  0
  4  6  1  0  0  0  0
  5  7  1  0  0  0  0
M  END
> <PUBCHEM_COMPOUND_CID>
7922

> <PUBCHEM_COMPOUND_CANONICALIZED>
1

> <PUBCHEM_CACTVS_COMPLEXITY>
102

> <PUBCHEM_CACTVS_HBOND_ACCEPTOR>
3

> <PUBCHEM_CACTVS_HBOND_DONOR>
0

> <PUBCHEM_CACTVS_ROTATABLE_BOND>
0

> <PUBCHEM_CACTVS_SUBSKEYS>
AAADcYBgMAAAAAAAAAAAAAAAAAAAASAAAAAAAAAAAAAAAAAAAAAAGgAAAAAACACAgAAACAAABAAIAACQCAAAAAAAAAAAAAEAAAAAABAAAAACAAAEAAAAAAADAAAAAAAAAAAAAAAAAAAAAAAAAAAAAAAAAA==

> <PUBCHEM_IUPAC_OPENEYE_NAME>
tetrahydrofuran-2,5-dione

> <PUBCHEM_IUPAC_CAS_NAME>
oxolane-2,5-dione

> <PUBCHEM_IUPAC_NAME>
oxolane-2,5-dione

> <PUBCHEM_IUPAC_SYSTEMATIC_NAME>
oxolane-2,5-dione

> <PUBCHEM_IUPAC_TRADITIONAL_NAME>
tetrahydrofuran-2,5-quinone

> <PUBCHEM_IUPAC_INCHI>
InChI=1S/C4H4O3/c5-3-1-2-4(6)7-3/h1-2H2

> <PUBCHEM_IUPAC_INCHIKEY>
RINCXYDBBGOEEQ-UHFFFAOYSA-N

> <PUBCHEM_XLOGP3_AA>
-0.5

> <PUBCHEM_EXACT_MASS>
100.016

> <PUBCHEM_MOLECULAR_FORMULA>
C4H4O3

> <PUBCHEM_MOLECULAR_WEIGHT>
100.073

> <PUBCHEM_OPENEYE_CAN_SMILES>
C1CC(=O)OC1=O

> <PUBCHEM_OPENEYE_ISO_SMILES>
C1CC(=O)OC1=O

> <PUBCHEM_CACTVS_TPSA>
43.4

> <PUBCHEM_MONOISOTOPIC_WEIGHT>
100.016

> <PUBCHEM_TOTAL_CHARGE>
0

> <PUBCHEM_HEAVY_ATOM_COUNT>
7

> <PUBCHEM_ATOM_DEF_STEREO_COUNT>
0

> <PUBCHEM_ATOM_UDEF_STEREO_COUNT>
0

> <PUBCHEM_BOND_DEF_STEREO_COUNT>
0

> <PUBCHEM_BOND_UDEF_STEREO_COUNT>
0

> <PUBCHEM_ISOTOPIC_ATOM_COUNT>
0

> <PUBCHEM_COMPONENT_COUNT>
1

> <PUBCHEM_CACTVS_TAUTO_COUNT>
-1

> <PUBCHEM_COORDINATE_TYPE>
1
5
255

$$$$
11487
  -OEChem-02061913072D

 13 14  0     0  0  0  0  0  0999 V2000
    2.8660    0.5000    0.0000 N   0  0  0  0  0  0  0  0  0  0  0  0
    2.8660   -0.5000    0.0000 C   0  0  0  0  0  0  0  0  0  0  0  0
    3.7320    1.0000    0.0000 C   0  0  0  0  0  0  0  0  0  0  0  0
    2.0000   -1.0000    0.0000 C   0  0  0  0  0  0  0  0  0  0  0  0
    4.5981    0.5000    0.0000 C   0  0  0  0  0  0  0  0  0  0  0  0
    3.7320   -1.0000    0.0000 C   0  0  0  0  0  0  0  0  0  0  0  0
    3.7320    2.0000    0.0000 C   0  0  0  0  0  0  0  0  0  0  0  0
    2.0000   -2.0000    0.0000 C   0  0  0  0  0  0  0  0  0  0  0  0
    5.4641    1.0000    0.0000 C   0  0  0  0  0  0  0  0  0  0  0  0
    3.7320   -2.0000    0.0000 C   0  0  0  0  0  0  0  0  0  0  0  0
    4.5981    2.5000    0.0000 C   0  0  0  0  0  0  0  0  0  0  0  0
    5.4641    2.0000    0.0000 C   0  0  0  0  0  0  0  0  0  0  0  0
    2.8660   -2.5000    0.0000 C   0  0  0  0  0  0  0  0  0  0  0  0
  1  2  1  0  0  0  0
  1  3  1  0  0  0  0
  2  4  2  0  0  0  0
  2  6  1  0  0  0  0
  3  5  2  0  0  0  0
  3  7  1  0  0  0  0
  4  8  1  0  0  0  0
  5  9  1  0  0  0  0
  6 10  2  0  0  0  0
  7 11  2  0  0  0  0
  8 13  2  0  0  0  0
  9 12  2  0  0  0  0
 10 13  1  0  0  0  0
 11 12  1  0  0  0  0
M  END
> <PUBCHEM_COMPOUND_CID>
11487

> <PUBCHEM_COMPOUND_CANONICALIZED>
1

> <PUBCHEM_CACTVS_COMPLEXITY>
116

> <PUBCHEM_CACTVS_HBOND_ACCEPTOR>
1

> <PUBCHEM_CACTVS_HBOND_DONOR>
1

> <PUBCHEM_CACTVS_ROTATABLE_BOND>
2

> <PUBCHEM_CACTVS_SUBSKEYS>
AAADccByAAAAAAAAAAAAAAAAAAAAAAAAAAAwYAAAAAAAAAABQAAAHAAQAAAACAiBEAAwwILAAACAACRCQACCAAAhAgAIiAAAZIgIIGLAkZGEIAhgkADIyAcQAAAAAAAAAAAAAAAAAAAAAAAAAAAAAAAAAA==

> <PUBCHEM_IUPAC_OPENEYE_NAME>
~{N}-phenylaniline

> <PUBCHEM_IUPAC_CAS_NAME>
~{N}-phenylaniline

> <PUBCHEM_IUPAC_NAME>
~{N}-phenylaniline

> <PUBCHEM_IUPAC_SYSTEMATIC_NAME>
~{N}-phenylaniline

> <PUBCHEM_IUPAC_TRADITIONAL_NAME>
diphenylamine

> <PUBCHEM_IUPAC_INCHI>
InChI=1S/C12H11N/c1-3-7-11(8-4-1)13-12-9-5-2-6-10-12/h1-10,13H

> <PUBCHEM_IUPAC_INCHIKEY>
DMBHHRLKUKUOEG-UHFFFAOYSA-N

> <PUBCHEM_XLOGP3>
3.5

> <PUBCHEM_EXACT_MASS>
169.089

> <PUBCHEM_MOLECULAR_FORMULA>
C12H11N

> <PUBCHEM_MOLECULAR_WEIGHT>
169.227

> <PUBCHEM_OPENEYE_CAN_SMILES>
C1=CC=C(C=C1)NC2=CC=CC=C2

> <PUBCHEM_OPENEYE_ISO_SMILES>
C1=CC=C(C=C1)NC2=CC=CC=C2

> <PUBCHEM_CACTVS_TPSA>
12

> <PUBCHEM_MONOISOTOPIC_WEIGHT>
169.089

> <PUBCHEM_TOTAL_CHARGE>
0

> <PUBCHEM_HEAVY_ATOM_COUNT>
13

> <PUBCHEM_ATOM_DEF_STEREO_COUNT>
0

> <PUBCHEM_ATOM_UDEF_STEREO_COUNT>
0

> <PUBCHEM_BOND_DEF_STEREO_COUNT>
0

> <PUBCHEM_BOND_UDEF_STEREO_COUNT>
0

> <PUBCHEM_ISOTOPIC_ATOM_COUNT>
0

> <PUBCHEM_COMPONENT_COUNT>
1

> <PUBCHEM_CACTVS_TAUTO_COUNT>
-1

> <PUBCHEM_COORDINATE_TYPE>
1
5
255

> <PUBCHEM_BONDANNOTATIONS>
10  13  8
11  12  8
2  4  8
2  6  8
3  5  8
3  7  8
4  8  8
5  9  8
6  10  8
7  11  8
8  13  8
9  12  8

$$$$
7302
  -OEChem-02061913072D

  6  6  0     0  0  0  0  0  0999 V2000
    2.8090   -0.7694    0.0000 O   0  0  0  0  0  0  0  0  0  0  0  0
    4.5691   -0.4907    0.0000 O   0  0  0  0  0  0  0  0  0  0  0  0
    2.3090    0.7694    0.0000 C   0  0  0  0  0  0  0  0  0  0  0  0
    3.3090    0.7694    0.0000 C   0  0  0  0  0  0  0  0  0  0  0  0
    2.0000   -0.1816    0.0000 C   0  0  0  0  0  0  0  0  0  0  0  0
    3.6180   -0.1816    0.0000 C   0  0  0  0  0  0  0  0  0  0  0  0
  1  5  1  0  0  0  0
  1  6  1  0  0  0  0
  2  6  2  0  0  0  0
  3  4  1  0  0  0  0
  3  5  1  0  0  0  0
  4  6  1  0  0  0  0
M  END
> <PUBCHEM_COMPOUND_CID>
7302

> <PUBCHEM_COMPOUND_CANONICALIZED>
1

> <PUBCHEM_CACTVS_COMPLEXITY>
67.9

> <PUBCHEM_CACTVS_HBOND_ACCEPTOR>
2

> <PUBCHEM_CACTVS_HBOND_DONOR>
0

> <PUBCHEM_CACTVS_ROTATABLE_BOND>
0

> <PUBCHEM_CACTVS_SUBSKEYS>
AAADcYBgMAAAAAAAAAAAAAAAAAAAASAAAAAAAAAAAAAAAAAAAAAAGgAAAAAACACggAIACAAABAAIAACQCAAAAAAAAAAAAAEAAAAAABAAAAACAAAEAAAAAAACAAAAAAAAAAAAAAAAAAAAAAAAAAAAAAAAAA==

> <PUBCHEM_IUPAC_OPENEYE_NAME>
tetrahydrofuran-2-one

> <PUBCHEM_IUPAC_CAS_NAME>
2-oxolanone

> <PUBCHEM_IUPAC_NAME>
oxolan-2-one

> <PUBCHEM_IUPAC_SYSTEMATIC_NAME>
oxolan-2-one

> <PUBCHEM_IUPAC_TRADITIONAL_NAME>
tetrahydrofuran-2-one

> <PUBCHEM_IUPAC_INCHI>
InChI=1S/C4H6O2/c5-4-2-1-3-6-4/h1-3H2

> <PUBCHEM_IUPAC_INCHIKEY>
YEJRWHAVMIAJKC-UHFFFAOYSA-N

> <PUBCHEM_XLOGP3>
-0.6

> <PUBCHEM_EXACT_MASS>
86.037

> <PUBCHEM_MOLECULAR_FORMULA>
C4H6O2

> <PUBCHEM_MOLECULAR_WEIGHT>
86.09

> <PUBCHEM_OPENEYE_CAN_SMILES>
C1CC(=O)OC1

> <PUBCHEM_OPENEYE_ISO_SMILES>
C1CC(=O)OC1

> <PUBCHEM_CACTVS_TPSA>
26.3

> <PUBCHEM_MONOISOTOPIC_WEIGHT>
86.037

> <PUBCHEM_TOTAL_CHARGE>
0

> <PUBCHEM_HEAVY_ATOM_COUNT>
6

> <PUBCHEM_ATOM_DEF_STEREO_COUNT>
0

> <PUBCHEM_ATOM_UDEF_STEREO_COUNT>
0

> <PUBCHEM_BOND_DEF_STEREO_COUNT>
0

> <PUBCHEM_BOND_UDEF_STEREO_COUNT>
0

> <PUBCHEM_ISOTOPIC_ATOM_COUNT>
0

> <PUBCHEM_COMPONENT_COUNT>
1

> <PUBCHEM_CACTVS_TAUTO_COUNT>
-1

> <PUBCHEM_COORDINATE_TYPE>
1
5
255

$$$$
7044
  -OEChem-02061913072D

 10 11  0     0  0  0  0  0  0999 V2000
    3.7320   -0.5000    0.0000 C   0  0  0  0  0  0  0  0  0  0  0  0
    3.7320    0.5000    0.0000 C   0  0  0  0  0  0  0  0  0  0  0  0
    2.8660    1.0000    0.0000 C   0  0  0  0  0  0  0  0  0  0  0  0
    4.6260    1.0347    0.0000 C   0  0  0  0  0  0  0  0  0  0  0  0
    4.6260   -1.0347    0.0000 C   0  0  0  0  0  0  0  0  0  0  0  0
    2.8660   -1.0000    0.0000 C   0  0  0  0  0  0  0  0  0  0  0  0
    2.0000   -0.5000    0.0000 C   0  0  0  0  0  0  0  0  0  0  0  0
    2.0000    0.5000    0.0000 C   0  0  0  0  0  0  0  0  0  0  0  0
    5.5321    0.5208    0.0000 C   0  0  0  0  0  0  0  0  0  0  0  0
    5.5321   -0.5208    0.0000 C   0  0  0  0  0  0  0  0  0  0  0  0
  1  2  1  0  0  0  0
  1  5  1  0  0  0  0
  1  6  1  0  0  0  0
  2  3  1  0  0  0  0
  2  4  1  0  0  0  0
  3  8  1  0  0  0  0
  4  9  1  0  0  0  0
  5 10  1  0  0  0  0
  6  7  1  0  0  0  0
  7  8  1  0  0  0  0
  9 10  1  0  0  0  0
M  END
> <PUBCHEM_COMPOUND_CID>
7044

> <PUBCHEM_COMPOUND_CANONICALIZED>
1

> <PUBCHEM_CACTVS_COMPLEXITY>
80.6

> <PUBCHEM_CACTVS_HBOND_ACCEPTOR>
0

> <PUBCHEM_CACTVS_HBOND_DONOR>
0

> <PUBCHEM_CACTVS_ROTATABLE_BOND>
0

> <PUBCHEM_CACTVS_SUBSKEYS>
AAADceBwAAAAAAAAAAAAAAAAAAAAAAAAAAAwYAAAAAAAAADAAAAAGAAAAAAADQCAAAAAAAAAAAAAAAAAAAAAAAAAAAAAAAAAAAAAAAIAAAAAAAAAAAAAAAEAgIAOgAAAAAAAAAAAAAAAACAAAAAAAAAAAA==

> <PUBCHEM_IUPAC_OPENEYE_NAME>
decalin

> <PUBCHEM_IUPAC_CAS_NAME>
1,2,3,4,4~{a},5,6,7,8,8~{a}-decahydronaphthalene

> <PUBCHEM_IUPAC_NAME>
1,2,3,4,4~{a},5,6,7,8,8~{a}-decahydronaphthalene

> <PUBCHEM_IUPAC_SYSTEMATIC_NAME>
1,2,3,4,4~{a},5,6,7,8,8~{a}-decahydronaphthalene

> <PUBCHEM_IUPAC_TRADITIONAL_NAME>
decalin

> <PUBCHEM_IUPAC_INCHI>
InChI=1S/C10H18/c1-2-6-10-8-4-3-7-9(10)5-1/h9-10H,1-8H2

> <PUBCHEM_IUPAC_INCHIKEY>
NNBZCPXTIHJBJL-UHFFFAOYSA-N

> <PUBCHEM_XLOGP3_AA>
4.6

> <PUBCHEM_EXACT_MASS>
138.141

> <PUBCHEM_MOLECULAR_FORMULA>
C10H18

> <PUBCHEM_MOLECULAR_WEIGHT>
138.254

> <PUBCHEM_OPENEYE_CAN_SMILES>
C1CCC2CCCCC2C1

> <PUBCHEM_OPENEYE_ISO_SMILES>
C1CCC2CCCCC2C1

> <PUBCHEM_CACTVS_TPSA>
0

> <PUBCHEM_MONOISOTOPIC_WEIGHT>
138.141

> <PUBCHEM_TOTAL_CHARGE>
0

> <PUBCHEM_HEAVY_ATOM_COUNT>
10

> <PUBCHEM_ATOM_DEF_STEREO_COUNT>
0

> <PUBCHEM_ATOM_UDEF_STEREO_COUNT>
0

> <PUBCHEM_BOND_DEF_STEREO_COUNT>
0

> <PUBCHEM_BOND_UDEF_STEREO_COUNT>
0

> <PUBCHEM_ISOTOPIC_ATOM_COUNT>
0

> <PUBCHEM_COMPONENT_COUNT>
1

> <PUBCHEM_CACTVS_TAUTO_COUNT>
-1

> <PUBCHEM_COORDINATE_TYPE>
1
5
255

$$$$
7187
  -OEChem-02061913072D

 18 19  0     0  0  0  0  0  0999 V2000
    3.7320    0.5000    0.0000 O   0  0  0  0  0  0  0  0  0  0  0  0
    3.7320   -0.5000    0.0000 O   0  0  0  0  0  0  0  0  0  0  0  0
    2.0000   -0.5000    0.0000 O   0  0  0  0  0  0  0  0  0  0  0  0
    5.4641    0.5000    0.0000 O   0  0  0  0  0  0  0  0  0  0  0  0
    2.8660   -2.0000    0.0000 C   0  0  0  0  0  0  0  0  0  0  0  0
    4.5981    2.0000    0.0000 C   0  0  0  0  0  0  0  0  0  0  0  0
    2.0000   -2.5000    0.0000 C   0  0  0  0  0  0  0  0  0  0  0  0
    5.4641    2.5000    0.0000 C   0  0  0  0  0  0  0  0  0  0  0  0
    3.7320   -2.5000    0.0000 C   0  0  0  0  0  0  0  0  0  0  0  0
    3.7320    2.5000    0.0000 C   0  0  0  0  0  0  0  0  0  0  0  0
    2.0000   -3.5000    0.0000 C   0  0  0  0  0  0  0  0  0  0  0  0
    5.4641    3.5000    0.0000 C   0  0  0  0  0  0  0  0  0  0  0  0
    3.7320   -3.5000    0.0000 C   0  0  0  0  0  0  0  0  0  0  0  0
    3.7320    3.5000    0.0000 C   0  0  0  0  0  0  0  0  0  0  0  0
    4.5981    4.0000    0.0000 C   0  0  0  0  0  0  0  0  0  0  0  0
    2.8660   -4.0000    0.0000 C   0  0  0  0  0  0  0  0  0  0  0  0
    2.8660   -1.0000    0.0000 C   0  0  0  0  0  0  0  0  0  0  0  0
    4.5981    1.0000    0.0000 C   0  0  0  0  0  0  0  0  0  0  0  0
  1  2  1  0  0  0  0
  1 18  1  0  0  0  0
  2 17  1  0  0  0  0
  3 17  2  0  0  0  0
  4 18  2  0  0  0  0
  5  7  2  0  0  0  0
  5  9  1  0  0  0  0
  5 17  1  0  0  0  0
  6  8  2  0  0  0  0
  6 10  1  0  0  0  0
  6 18  1  0  0  0  0
  7 11  1  0  0  0  0
  8 12  1  0  0  0  0
  9 13  2  0  0  0  0
 10 14  2  0  0  0  0
 11 16  2  0  0  0  0
 12 15  2  0  0  0  0
 13 16  1  0  0  0  0
 14 15  1  0  0  0  0
M  END
> <PUBCHEM_COMPOUND_CID>
7187

> <PUBCHEM_COMPOUND_CANONICALIZED>
1

> <PUBCHEM_CACTVS_COMPLEXITY>
258

> <PUBCHEM_CACTVS_HBOND_ACCEPTOR>
4

> <PUBCHEM_CACTVS_HBOND_DONOR>
0

> <PUBCHEM_CACTVS_ROTATABLE_BOND>
5

> <PUBCHEM_CACTVS_SUBSKEYS>
AAADccBwOAAAAAAAAAAAAAAAAAAAAAAAAAAwYAAAAAAAAAABQAAAGgAABAAADACAmAAwCIAAAACIAiDSCAACAAAkAAAIiAEACMgIJjKAFRCAMQAkwAEIiYeIyCCOAAAAAAAAAAAAAAAAAAAAAAAAAAAAAA==

> <PUBCHEM_IUPAC_OPENEYE_NAME>
benzoyl benzenecarboperoxoate

> <PUBCHEM_IUPAC_CAS_NAME>
benzenecarboperoxoic acid benzoyl ester

> <PUBCHEM_IUPAC_NAME>
benzoyl benzenecarboperoxoate

> <PUBCHEM_IUPAC_SYSTEMATIC_NAME>
phenylcarbonyl benzenecarboperoxoate

> <PUBCHEM_IUPAC_TRADITIONAL_NAME>
benzenecarboperoxoic acid benzoyl ester

> <PUBCHEM_IUPAC_INCHI>
InChI=1S/C14H10O4/c15-13(11-7-3-1-4-8-11)17-18-14(16)12-9-5-2-6-10-12/h1-10H

> <PUBCHEM_IUPAC_INCHIKEY>
OMPJBNCRMGITSC-UHFFFAOYSA-N

> <PUBCHEM_XLOGP3_AA>
3.5

> <PUBCHEM_EXACT_MASS>
242.058

> <PUBCHEM_MOLECULAR_FORMULA>
C14H10O4

> <PUBCHEM_MOLECULAR_WEIGHT>
242.23

> <PUBCHEM_OPENEYE_CAN_SMILES>
C1=CC=C(C=C1)C(=O)OOC(=O)C2=CC=CC=C2

> <PUBCHEM_OPENEYE_ISO_SMILES>
C1=CC=C(C=C1)C(=O)OOC(=O)C2=CC=CC=C2

> <PUBCHEM_CACTVS_TPSA>
52.6

> <PUBCHEM_MONOISOTOPIC_WEIGHT>
242.058

> <PUBCHEM_TOTAL_CHARGE>
0

> <PUBCHEM_HEAVY_ATOM_COUNT>
18

> <PUBCHEM_ATOM_DEF_STEREO_COUNT>
0

> <PUBCHEM_ATOM_UDEF_STEREO_COUNT>
0

> <PUBCHEM_BOND_DEF_STEREO_COUNT>
0

> <PUBCHEM_BOND_UDEF_STEREO_COUNT>
0

> <PUBCHEM_ISOTOPIC_ATOM_COUNT>
0

> <PUBCHEM_COMPONENT_COUNT>
1

> <PUBCHEM_CACTVS_TAUTO_COUNT>
-1

> <PUBCHEM_COORDINATE_TYPE>
1
5
255

> <PUBCHEM_BONDANNOTATIONS>
10  14  8
11  16  8
12  15  8
13  16  8
14  15  8
5  7  8
5  9  8
6  10  8
6  8  8
7  11  8
8  12  8
9  13  8

$$$$
1115
  -OEChem-02061913062D

 23 24  0     1  0  0  0  0  0999 V2000
    5.8671    0.7306    0.0000 O   0  0  0  0  0  0  0  0  0  0  0  0
    6.8671   -0.2694    0.0000 O   0  0  0  0  0  0  0  0  0  0  0  0
    5.1350   -0.2694    0.0000 O   0  0  0  0  0  0  0  0  0  0  0  0
    8.1271    1.9906    0.0000 O   0  0  0  0  0  0  0  0  0  0  0  0
    6.3671    3.2694    0.0000 O   0  0  0  0  0  0  0  0  0  0  0  0
    6.8671   -2.2694    0.0000 O   0  0  0  0  0  0  0  0  0  0  0  0
    5.1350   -3.2694    0.0000 O   0  0  0  0  0  0  0  0  0  0  0  0
    3.4030   -2.2694    0.0000 O   0  0  0  0  0  0  0  0  0  0  0  0
    8.5613    1.0907    0.0000 O   0  0  0  0  0  0  0  0  0  0  0  0
    4.3991    2.9688    0.0000 O   0  0  0  0  0  0  0  0  0  0  0  0
    2.5369   -0.7694    0.0000 O   0  0  0  0  0  0  0  0  0  0  0  0
    6.8671    0.7306    0.0000 C   0  0  3  0  0  0  0  0  0  0  0  0
    7.1761    1.6816    0.0000 C   0  0  3  0  0  0  0  0  0  0  0  0
    6.3671    2.2694    0.0000 C   0  0  3  0  0  0  0  0  0  0  0  0
    5.5580    1.6816    0.0000 C   0  0  3  0  0  0  0  0  0  0  0  0
    6.0010   -0.7694    0.0000 C   0  0  3  0  0  0  0  0  0  0  0  0
    6.0010   -1.7694    0.0000 C   0  0  3  0  0  0  0  0  0  0  0  0
    5.1350   -2.2694    0.0000 C   0  0  3  0  0  0  0  0  0  0  0  0
    4.2690   -1.7694    0.0000 C   0  0  3  0  0  0  0  0  0  0  0  0
    4.2690   -0.7694    0.0000 C   0  0  3  0  0  0  0  0  0  0  0  0
    7.8181    0.4216    0.0000 C   0  0  0  0  0  0  0  0  0  0  0  0
    4.6070    1.9906    0.0000 C   0  0  0  0  0  0  0  0  0  0  0  0
    3.4030   -0.2694    0.0000 C   0  0  0  0  0  0  0  0  0  0  0  0
  1 12  1  0  0  0  0
  1 15  1  0  0  0  0
  2 12  1  0  0  0  0
  2 16  1  0  0  0  0
  3 16  1  0  0  0  0
  3 20  1  0  0  0  0
  4 13  1  0  0  0  0
  5 14  1  0  0  0  0
  6 17  1  0  0  0  0
  7 18  1  0  0  0  0
  8 19  1  0  0  0  0
  9 21  1  0  0  0  0
 10 22  1  0  0  0  0
 11 23  1  0  0  0  0
 12 13  1  0  0  0  0
 12 21  1  0  0  0  0
 13 14  1  0  0  0  0
 14 15  1  0  0  0  0
 15 22  1  0  0  0  0
 16 17  1  0  0  0  0
 17 18  1  0  0  0  0
 18 19  1  0  0  0  0
 19 20  1  0  0  0  0
 20 23  1  0  0  0  0
M  END
> <PUBCHEM_COMPOUND_CID>
1115

> <PUBCHEM_COMPOUND_CANONICALIZED>
1

> <PUBCHEM_CACTVS_COMPLEXITY>
395

> <PUBCHEM_CACTVS_HBOND_ACCEPTOR>
11

> <PUBCHEM_CACTVS_HBOND_DONOR>
8

> <PUBCHEM_CACTVS_ROTATABLE_BOND>
5

> <PUBCHEM_CACTVS_SUBSKEYS>
AAADceBwPAAAAAAAAAAAAAAAAAAAASAAAAAkAAAAAAAAAAAAAAAAGgAACAAACBSwgAMACAAABgAAAAAAAAAAAAAAAAAAAAAAAAAREAIAAAAiQAAFAAAHAAHAYAwAAAAAAAAAAAAAAAAAAAAAAAAAAAAAAA==

> <PUBCHEM_IUPAC_OPENEYE_NAME>
2-[3,4-dihydroxy-2,5-bis(hydroxymethyl)tetrahydrofuran-2-yl]oxy-6-(hydroxymethyl)tetrahydropyran-3,4,5-triol

> <PUBCHEM_IUPAC_CAS_NAME>
2-[[3,4-dihydroxy-2,5-bis(hydroxymethyl)-2-oxolanyl]oxy]-6-(hydroxymethyl)oxane-3,4,5-triol

> <PUBCHEM_IUPAC_NAME>
2-[3,4-dihydroxy-2,5-bis(hydroxymethyl)oxolan-2-yl]oxy-6-(hydroxymethyl)oxane-3,4,5-triol

> <PUBCHEM_IUPAC_SYSTEMATIC_NAME>
2-[2,5-bis(hydroxymethyl)-3,4-bis(oxidanyl)oxolan-2-yl]oxy-6-(hydroxymethyl)oxane-3,4,5-triol

> <PUBCHEM_IUPAC_TRADITIONAL_NAME>
2-(3,4-dihydroxy-2,5-dimethylol-tetrahydrofuran-2-yl)oxy-6-methylol-tetrahydropyran-3,4,5-triol

> <PUBCHEM_IUPAC_INCHI>
InChI=1S/C12H22O11/c13-1-4-6(16)8(18)9(19)11(21-4)23-12(3-15)10(20)7(17)5(2-14)22-12/h4-11,13-20H,1-3H2

> <PUBCHEM_IUPAC_INCHIKEY>
CZMRCDWAGMRECN-UHFFFAOYSA-N

> <PUBCHEM_XLOGP3>
-3.7

> <PUBCHEM_EXACT_MASS>
342.116

> <PUBCHEM_MOLECULAR_FORMULA>
C12H22O11

> <PUBCHEM_MOLECULAR_WEIGHT>
342.297

> <PUBCHEM_OPENEYE_CAN_SMILES>
C(C1C(C(C(C(O1)OC2(C(C(C(O2)CO)O)O)CO)O)O)O)O

> <PUBCHEM_OPENEYE_ISO_SMILES>
C(C1C(C(C(C(O1)OC2(C(C(C(O2)CO)O)O)CO)O)O)O)O

> <PUBCHEM_CACTVS_TPSA>
190

> <PUBCHEM_MONOISOTOPIC_WEIGHT>
342.116

> <PUBCHEM_TOTAL_CHARGE>
0

> <PUBCHEM_HEAVY_ATOM_COUNT>
23

> <PUBCHEM_ATOM_DEF_STEREO_COUNT>
0

> <PUBCHEM_ATOM_UDEF_STEREO_COUNT>
9

> <PUBCHEM_BOND_DEF_STEREO_COUNT>
0

> <PUBCHEM_BOND_UDEF_STEREO_COUNT>
0

> <PUBCHEM_ISOTOPIC_ATOM_COUNT>
0

> <PUBCHEM_COMPONENT_COUNT>
1

> <PUBCHEM_CACTVS_TAUTO_COUNT>
-1

> <PUBCHEM_COORDINATE_TYPE>
1
5
255

> <PUBCHEM_BONDANNOTATIONS>
15  22  3
12  2  3
16  2  3
20  23  3
13  4  3
14  5  3
17  6  3
18  7  3
19  8  3

$$$$
7962
  -OEChem-02061913072D

  7  7  0     0  0  0  0  0  0999 V2000
    2.8660    0.5000    0.0000 C   0  0  0  0  0  0  0  0  0  0  0  0
    2.0000    0.0000    0.0000 C   0  0  0  0  0  0  0  0  0  0  0  0
    3.7320   -0.0000    0.0000 C   0  0  0  0  0  0  0  0  0  0  0  0
    2.0000   -1.0000    0.0000 C   0  0  0  0  0  0  0  0  0  0  0  0
    3.7320   -1.0000    0.0000 C   0  0  0  0  0  0  0  0  0  0  0  0
    2.8660   -1.5000    0.0000 C   0  0  0  0  0  0  0  0  0  0  0  0
    2.8660    1.5000    0.0000 C   0  0  0  0  0  0  0  0  0  0  0  0
  1  2  1  0  0  0  0
  1  3  1  0  0  0  0
  1  7  1  0  0  0  0
  2  4  1  0  0  0  0
  3  5  1  0  0  0  0
  4  6  1  0  0  0  0
  5  6  1  0  0  0  0
M  END
> <PUBCHEM_COMPOUND_CID>
7962

> <PUBCHEM_COMPOUND_CANONICALIZED>
1

> <PUBCHEM_CACTVS_COMPLEXITY>
42

> <PUBCHEM_CACTVS_HBOND_ACCEPTOR>
0

> <PUBCHEM_CACTVS_HBOND_DONOR>
0

> <PUBCHEM_CACTVS_ROTATABLE_BOND>
0

> <PUBCHEM_CACTVS_SUBSKEYS>
AAADccBgAAAAAAAAAAAAAAAAAAAAAAAAAAAwAAAAAAAAAAAAAAAAGAAAAAAADQCAAAACAAAAAAAAAAAAAAAAAAAAAAAAAAAAAAAAAAIAAAAAAAAAAAAAAAEAgAAOAAAAAAAAAAAAAAAAAAAAAAAAAAAAAA==

> <PUBCHEM_IUPAC_OPENEYE_NAME>
methylcyclohexane

> <PUBCHEM_IUPAC_CAS_NAME>
methylcyclohexane

> <PUBCHEM_IUPAC_NAME>
methylcyclohexane

> <PUBCHEM_IUPAC_SYSTEMATIC_NAME>
methylcyclohexane

> <PUBCHEM_IUPAC_TRADITIONAL_NAME>
methylcyclohexane

> <PUBCHEM_IUPAC_INCHI>
InChI=1S/C7H14/c1-7-5-3-2-4-6-7/h7H,2-6H2,1H3

> <PUBCHEM_IUPAC_INCHIKEY>
UAEPNZWRGJTJPN-UHFFFAOYSA-N

> <PUBCHEM_XLOGP3>
3.6

> <PUBCHEM_EXACT_MASS>
98.11

> <PUBCHEM_MOLECULAR_FORMULA>
C7H14

> <PUBCHEM_MOLECULAR_WEIGHT>
98.189

> <PUBCHEM_OPENEYE_CAN_SMILES>
CC1CCCCC1

> <PUBCHEM_OPENEYE_ISO_SMILES>
CC1CCCCC1

> <PUBCHEM_CACTVS_TPSA>
0

> <PUBCHEM_MONOISOTOPIC_WEIGHT>
98.11

> <PUBCHEM_TOTAL_CHARGE>
0

> <PUBCHEM_HEAVY_ATOM_COUNT>
7

> <PUBCHEM_ATOM_DEF_STEREO_COUNT>
0

> <PUBCHEM_ATOM_UDEF_STEREO_COUNT>
0

> <PUBCHEM_BOND_DEF_STEREO_COUNT>
0

> <PUBCHEM_BOND_UDEF_STEREO_COUNT>
0

> <PUBCHEM_ISOTOPIC_ATOM_COUNT>
0

> <PUBCHEM_COMPONENT_COUNT>
1

> <PUBCHEM_CACTVS_TAUTO_COUNT>
-1

> <PUBCHEM_COORDINATE_TYPE>
1
5
255

$$$$
335
  -OEChem-02061913062D

  8  8  0     0  0  0  0  0  0999 V2000
    3.7320    1.3450    0.0000 O   0  0  0  0  0  0  0  0  0  0  0  0
    2.8660   -0.1550    0.0000 C   0  0  0  0  0  0  0  0  0  0  0  0
    3.7320    0.3450    0.0000 C   0  0  0  0  0  0  0  0  0  0  0  0
    2.8660   -1.1550    0.0000 C   0  0  0  0  0  0  0  0  0  0  0  0
    2.0000    0.3450    0.0000 C   0  0  0  0  0  0  0  0  0  0  0  0
    4.5981   -0.1550    0.0000 C   0  0  0  0  0  0  0  0  0  0  0  0
    3.7320   -1.6550    0.0000 C   0  0  0  0  0  0  0  0  0  0  0  0
    4.5981   -1.1550    0.0000 C   0  0  0  0  0  0  0  0  0  0  0  0
  1  3  1  0  0  0  0
  2  3  1  0  0  0  0
  2  4  2  0  0  0  0
  2  5  1  0  0  0  0
  3  6  2  0  0  0  0
  4  7  1  0  0  0  0
  6  8  1  0  0  0  0
  7  8  2  0  0  0  0
M  END
> <PUBCHEM_COMPOUND_CID>
335

> <PUBCHEM_COMPOUND_CANONICALIZED>
1

> <PUBCHEM_CACTVS_COMPLEXITY>
70.8

> <PUBCHEM_CACTVS_HBOND_ACCEPTOR>
1

> <PUBCHEM_CACTVS_HBOND_DONOR>
1

> <PUBCHEM_CACTVS_ROTATABLE_BOND>
0

> <PUBCHEM_CACTVS_SUBSKEYS>
AAADccBgIAAAAAAAAAAAAAAAAAAAAAAAAAAwAAAAAAAAAAABAAAAGgAACAAADASAmAAyBoAAAgCAAiBCAAACAAAgIAAIiAAGCIgIJiKCERKAcAAkwBEImAeAwCAOAAAAAAAIAAAAAAAAABAAAAAAAAAAAA==

> <PUBCHEM_IUPAC_OPENEYE_NAME>
o-cresol

> <PUBCHEM_IUPAC_CAS_NAME>
2-methylphenol

> <PUBCHEM_IUPAC_NAME>
2-methylphenol

> <PUBCHEM_IUPAC_SYSTEMATIC_NAME>
2-methylphenol

> <PUBCHEM_IUPAC_TRADITIONAL_NAME>
o-cresol

> <PUBCHEM_IUPAC_INCHI>
InChI=1S/C7H8O/c1-6-4-2-3-5-7(6)8/h2-5,8H,1H3

> <PUBCHEM_IUPAC_INCHIKEY>
QWVGKYWNOKOFNN-UHFFFAOYSA-N

> <PUBCHEM_XLOGP3>
2

> <PUBCHEM_EXACT_MASS>
108.058

> <PUBCHEM_MOLECULAR_FORMULA>
C7H8O

> <PUBCHEM_MOLECULAR_WEIGHT>
108.14

> <PUBCHEM_OPENEYE_CAN_SMILES>
CC1=CC=CC=C1O

> <PUBCHEM_OPENEYE_ISO_SMILES>
CC1=CC=CC=C1O

> <PUBCHEM_CACTVS_TPSA>
20.2

> <PUBCHEM_MONOISOTOPIC_WEIGHT>
108.058

> <PUBCHEM_TOTAL_CHARGE>
0

> <PUBCHEM_HEAVY_ATOM_COUNT>
8

> <PUBCHEM_ATOM_DEF_STEREO_COUNT>
0

> <PUBCHEM_ATOM_UDEF_STEREO_COUNT>
0

> <PUBCHEM_BOND_DEF_STEREO_COUNT>
0

> <PUBCHEM_BOND_UDEF_STEREO_COUNT>
0

> <PUBCHEM_ISOTOPIC_ATOM_COUNT>
0

> <PUBCHEM_COMPONENT_COUNT>
1

> <PUBCHEM_CACTVS_TAUTO_COUNT>
-1

> <PUBCHEM_COORDINATE_TYPE>
1
5
255

> <PUBCHEM_BONDANNOTATIONS>
2  3  8
2  4  8
3  6  8
4  7  8
6  8  8
7  8  8

$$$$
7095
  -OEChem-02061913072D

 12 13  0     0  0  0  0  0  0999 V2000
    2.8660   -0.5000    0.0000 C   0  0  0  0  0  0  0  0  0  0  0  0
    2.8660    0.5000    0.0000 C   0  0  0  0  0  0  0  0  0  0  0  0
    3.7320    1.0000    0.0000 C   0  0  0  0  0  0  0  0  0  0  0  0
    2.0000   -1.0000    0.0000 C   0  0  0  0  0  0  0  0  0  0  0  0
    2.0000    1.0000    0.0000 C   0  0  0  0  0  0  0  0  0  0  0  0
    3.7320   -1.0000    0.0000 C   0  0  0  0  0  0  0  0  0  0  0  0
    3.7320    2.0000    0.0000 C   0  0  0  0  0  0  0  0  0  0  0  0
    2.0000   -2.0000    0.0000 C   0  0  0  0  0  0  0  0  0  0  0  0
    2.0000    2.0000    0.0000 C   0  0  0  0  0  0  0  0  0  0  0  0
    3.7320   -2.0000    0.0000 C   0  0  0  0  0  0  0  0  0  0  0  0
    2.8660   -2.5000    0.0000 C   0  0  0  0  0  0  0  0  0  0  0  0
    2.8660    2.5000    0.0000 C   0  0  0  0  0  0  0  0  0  0  0  0
  1  2  1  0  0  0  0
  1  4  2  0  0  0  0
  1  6  1  0  0  0  0
  2  3  2  0  0  0  0
  2  5  1  0  0  0  0
  3  7  1  0  0  0  0
  4  8  1  0  0  0  0
  5  9  2  0  0  0  0
  6 10  2  0  0  0  0
  7 12  2  0  0  0  0
  8 11  2  0  0  0  0
  9 12  1  0  0  0  0
 10 11  1  0  0  0  0
M  END
> <PUBCHEM_COMPOUND_CID>
7095

> <PUBCHEM_COMPOUND_CANONICALIZED>
1

> <PUBCHEM_CACTVS_COMPLEXITY>
100

> <PUBCHEM_CACTVS_HBOND_ACCEPTOR>
0

> <PUBCHEM_CACTVS_HBOND_DONOR>
0

> <PUBCHEM_CACTVS_ROTATABLE_BOND>
1

> <PUBCHEM_CACTVS_SUBSKEYS>
AAADccBwAAAAAAAAAAAAAAAAAAAAAAAAAAAwYAAAAAAAAAABQAAAGAAAAAAADACAGAAwAIAAAACAAiBCAAACAAAgAAAIiAAAAIgIICKAERCAIAAggAAIiAcAgMAOgAAAAAAAAAAAAAAAAAAAAAAAAAAAAA==

> <PUBCHEM_IUPAC_OPENEYE_NAME>
biphenyl

> <PUBCHEM_IUPAC_CAS_NAME>
1,1'-biphenyl

> <PUBCHEM_IUPAC_NAME>
1,1'-biphenyl

> <PUBCHEM_IUPAC_SYSTEMATIC_NAME>
1,1'-biphenyl

> <PUBCHEM_IUPAC_TRADITIONAL_NAME>
biphenyl

> <PUBCHEM_IUPAC_INCHI>
InChI=1S/C12H10/c1-3-7-11(8-4-1)12-9-5-2-6-10-12/h1-10H

> <PUBCHEM_IUPAC_INCHIKEY>
ZUOUZKKEUPVFJK-UHFFFAOYSA-N

> <PUBCHEM_XLOGP3>
4

> <PUBCHEM_EXACT_MASS>
154.078

> <PUBCHEM_MOLECULAR_FORMULA>
C12H10

> <PUBCHEM_MOLECULAR_WEIGHT>
154.212

> <PUBCHEM_OPENEYE_CAN_SMILES>
C1=CC=C(C=C1)C2=CC=CC=C2

> <PUBCHEM_OPENEYE_ISO_SMILES>
C1=CC=C(C=C1)C2=CC=CC=C2

> <PUBCHEM_CACTVS_TPSA>
0

> <PUBCHEM_MONOISOTOPIC_WEIGHT>
154.078

> <PUBCHEM_TOTAL_CHARGE>
0

> <PUBCHEM_HEAVY_ATOM_COUNT>
12

> <PUBCHEM_ATOM_DEF_STEREO_COUNT>
0

> <PUBCHEM_ATOM_UDEF_STEREO_COUNT>
0

> <PUBCHEM_BOND_DEF_STEREO_COUNT>
0

> <PUBCHEM_BOND_UDEF_STEREO_COUNT>
0

> <PUBCHEM_ISOTOPIC_ATOM_COUNT>
0

> <PUBCHEM_COMPONENT_COUNT>
1

> <PUBCHEM_CACTVS_TAUTO_COUNT>
-1

> <PUBCHEM_COORDINATE_TYPE>
1
5
255

> <PUBCHEM_BONDANNOTATIONS>
1  4  8
1  6  8
10  11  8
2  3  8
2  5  8
3  7  8
4  8  8
5  9  8
6  10  8
7  12  8
8  11  8
9  12  8

$$$$
440967
  -OEChem-02061913092D

 10 11  0     1  0  0  0  0  0999 V2000
    5.4490   -0.0329    0.0000 C   0  0  0  0  0  0  0  0  0  0  0  0
    4.3089    0.9242    0.0000 C   0  0  2  0  0  0  0  0  0  0  0  0
    4.0501   -0.0417    0.0000 C   0  0  1  0  0  0  0  0  0  0  0  0
    3.5723    1.9068    0.0000 C   0  0  0  0  0  0  0  0  0  0  0  0
    2.2756    0.6130    0.0000 C   0  0  0  0  0  0  0  0  0  0  0  0
    2.8290   -0.9074    0.0000 C   0  0  0  0  0  0  0  0  0  0  0  0
    2.0000   -0.3482    0.0000 C   0  0  0  0  0  0  0  0  0  0  0  0
    6.3150    0.4671    0.0000 C   0  0  0  0  0  0  0  0  0  0  0  0
    5.9490   -0.8990    0.0000 C   0  0  0  0  0  0  0  0  0  0  0  0
    2.8639   -1.9068    0.0000 C   0  0  0  0  0  0  0  0  0  0  0  0
  1  2  1  0  0  0  0
  1  3  1  0  0  0  0
  1  8  1  0  0  0  0
  1  9  1  0  0  0  0
  2  4  1  0  0  0  0
  2  5  1  0  0  0  0
  3  4  1  0  0  0  0
  3  6  1  0  0  0  0
  5  7  1  0  0  0  0
  6  7  1  0  0  0  0
  6 10  2  0  0  0  0
M  END
> <PUBCHEM_COMPOUND_CID>
440967

> <PUBCHEM_COMPOUND_CANONICALIZED>
1

> <PUBCHEM_CACTVS_COMPLEXITY>
177

> <PUBCHEM_CACTVS_HBOND_ACCEPTOR>
0

> <PUBCHEM_CACTVS_HBOND_DONOR>
0

> <PUBCHEM_CACTVS_ROTATABLE_BOND>
0

> <PUBCHEM_CACTVS_SUBSKEYS>
AAADceBwAAAAAAAAAAAAAAAAAABgAAAAAAAwYAAAAAAAAAAAAAAAGAAAAAAADwCAAAACAAAAAACAAgBCAAAAAAAgAAAAAAAAAAgAAAIAAQAAAAAAgAAAAAEAgMAPgAAAAAAAAAAAAAAAACAAAAAAAAAAAA==

> <PUBCHEM_IUPAC_OPENEYE_NAME>
(1~{S},5~{S})-6,6-dimethyl-2-methylene-norpinane

> <PUBCHEM_IUPAC_CAS_NAME>
(1~{S},5~{S})-6,6-dimethyl-2-methylenebicyclo[3.1.1]heptane

> <PUBCHEM_IUPAC_NAME>
(1~{S},5~{S})-6,6-dimethyl-2-methylidenebicyclo[3.1.1]heptane

> <PUBCHEM_IUPAC_SYSTEMATIC_NAME>
(1~{S},5~{S})-6,6-dimethyl-2-methylidene-bicyclo[3.1.1]heptane

> <PUBCHEM_IUPAC_TRADITIONAL_NAME>
(1~{S},5~{S})-6,6-dimethyl-2-methylene-norpinane

> <PUBCHEM_IUPAC_INCHI>
InChI=1S/C10H16/c1-7-4-5-8-6-9(7)10(8,2)3/h8-9H,1,4-6H2,2-3H3/t8-,9-/m0/s1

> <PUBCHEM_IUPAC_INCHIKEY>
WTARULDDTDQWMU-IUCAKERBSA-N

> <PUBCHEM_XLOGP3_AA>
3.1

> <PUBCHEM_EXACT_MASS>
136.125

> <PUBCHEM_MOLECULAR_FORMULA>
C10H16

> <PUBCHEM_MOLECULAR_WEIGHT>
136.238

> <PUBCHEM_OPENEYE_CAN_SMILES>
CC1(C2CCC(=C)C1C2)C

> <PUBCHEM_OPENEYE_ISO_SMILES>
CC1([C@H]2CCC(=C)[C@@H]1C2)C

> <PUBCHEM_CACTVS_TPSA>
0

> <PUBCHEM_MONOISOTOPIC_WEIGHT>
136.125

> <PUBCHEM_TOTAL_CHARGE>
0

> <PUBCHEM_HEAVY_ATOM_COUNT>
10

> <PUBCHEM_ATOM_DEF_STEREO_COUNT>
2

> <PUBCHEM_ATOM_UDEF_STEREO_COUNT>
0

> <PUBCHEM_BOND_DEF_STEREO_COUNT>
0

> <PUBCHEM_BOND_UDEF_STEREO_COUNT>
0

> <PUBCHEM_ISOTOPIC_ATOM_COUNT>
0

> <PUBCHEM_COMPONENT_COUNT>
1

> <PUBCHEM_CACTVS_TAUTO_COUNT>
-1

> <PUBCHEM_COORDINATE_TYPE>
1
5
255

> <PUBCHEM_BONDANNOTATIONS>
2  11  6
3  12  5

$$$$
2879
  -OEChem-02061913062D

  8  8  0     0  0  0  0  0  0999 V2000
    2.8660    1.8450    0.0000 O   0  0  0  0  0  0  0  0  0  0  0  0
    2.8660   -1.1550    0.0000 C   0  0  0  0  0  0  0  0  0  0  0  0
    3.7320   -0.6550    0.0000 C   0  0  0  0  0  0  0  0  0  0  0  0
    2.0000   -0.6550    0.0000 C   0  0  0  0  0  0  0  0  0  0  0  0
    3.7320    0.3450    0.0000 C   0  0  0  0  0  0  0  0  0  0  0  0
    2.0000    0.3450    0.0000 C   0  0  0  0  0  0  0  0  0  0  0  0
    2.8660    0.8450    0.0000 C   0  0  0  0  0  0  0  0  0  0  0  0
    2.8660   -2.1550    0.0000 C   0  0  0  0  0  0  0  0  0  0  0  0
  1  7  1  0  0  0  0
  2  3  2  0  0  0  0
  2  4  1  0  0  0  0
  2  8  1  0  0  0  0
  3  5  1  0  0  0  0
  4  6  2  0  0  0  0
  5  7  2  0  0  0  0
  6  7  1  0  0  0  0
M  END
> <PUBCHEM_COMPOUND_CID>
2879

> <PUBCHEM_COMPOUND_CANONICALIZED>
1

> <PUBCHEM_CACTVS_COMPLEXITY>
62.8

> <PUBCHEM_CACTVS_HBOND_ACCEPTOR>
1

> <PUBCHEM_CACTVS_HBOND_DONOR>
1

> <PUBCHEM_CACTVS_ROTATABLE_BOND>
0

> <PUBCHEM_CACTVS_SUBSKEYS>
AAADccBgIAAAAAAAAAAAAAAAAAAAAAAAAAAwAAAAAAAAAAABAAAAGgAACAAADASAmAAyBoAAAgCAAiBCAAACAAAgIAAIiAAGCIgIJiKCERKAcAAkwBEImAeAwAAOIAAAAAAAAABAAAAAAAAAAAAAAAAAAA==

> <PUBCHEM_IUPAC_OPENEYE_NAME>
p-cresol

> <PUBCHEM_IUPAC_CAS_NAME>
4-methylphenol

> <PUBCHEM_IUPAC_NAME>
4-methylphenol

> <PUBCHEM_IUPAC_SYSTEMATIC_NAME>
4-methylphenol

> <PUBCHEM_IUPAC_TRADITIONAL_NAME>
p-cresol

> <PUBCHEM_IUPAC_INCHI>
InChI=1S/C7H8O/c1-6-2-4-7(8)5-3-6/h2-5,8H,1H3

> <PUBCHEM_IUPAC_INCHIKEY>
IWDCLRJOBJJRNH-UHFFFAOYSA-N

> <PUBCHEM_XLOGP3>
1.9

> <PUBCHEM_EXACT_MASS>
108.058

> <PUBCHEM_MOLECULAR_FORMULA>
C7H8O

> <PUBCHEM_MOLECULAR_WEIGHT>
108.14

> <PUBCHEM_OPENEYE_CAN_SMILES>
CC1=CC=C(C=C1)O

> <PUBCHEM_OPENEYE_ISO_SMILES>
CC1=CC=C(C=C1)O

> <PUBCHEM_CACTVS_TPSA>
20.2

> <PUBCHEM_MONOISOTOPIC_WEIGHT>
108.058

> <PUBCHEM_TOTAL_CHARGE>
0

> <PUBCHEM_HEAVY_ATOM_COUNT>
8

> <PUBCHEM_ATOM_DEF_STEREO_COUNT>
0

> <PUBCHEM_ATOM_UDEF_STEREO_COUNT>
0

> <PUBCHEM_BOND_DEF_STEREO_COUNT>
0

> <PUBCHEM_BOND_UDEF_STEREO_COUNT>
0

> <PUBCHEM_ISOTOPIC_ATOM_COUNT>
0

> <PUBCHEM_COMPONENT_COUNT>
1

> <PUBCHEM_CACTVS_TAUTO_COUNT>
-1

> <PUBCHEM_COORDINATE_TYPE>
1
5
255

> <PUBCHEM_BONDANNOTATIONS>
2  3  8
2  4  8
3  5  8
4  6  8
5  7  8
6  7  8

$$$$
8343
  -OEChem-02061913072D

 28 28  0     1  0  0  0  0  0999 V2000
   10.6603   -0.5000    0.0000 O   0  0  0  0  0  0  0  0  0  0  0  0
    7.1962   -2.5000    0.0000 O   0  0  0  0  0  0  0  0  0  0  0  0
    8.9282   -0.5000    0.0000 O   0  0  0  0  0  0  0  0  0  0  0  0
    8.0622   -1.0000    0.0000 O   0  0  0  0  0  0  0  0  0  0  0  0
    5.4641   -2.5000    0.0000 C   0  0  3  0  0  0  0  0  0  0  0  0
   11.5263    1.0000    0.0000 C   0  0  3  0  0  0  0  0  0  0  0  0
   11.5263    2.0000    0.0000 C   0  0  0  0  0  0  0  0  0  0  0  0
    4.5981   -2.0000    0.0000 C   0  0  0  0  0  0  0  0  0  0  0  0
    5.4641   -3.5000    0.0000 C   0  0  0  0  0  0  0  0  0  0  0  0
   12.3923    0.5000    0.0000 C   0  0  0  0  0  0  0  0  0  0  0  0
   12.3923    2.5000    0.0000 C   0  0  0  0  0  0  0  0  0  0  0  0
    3.7320   -2.5000    0.0000 C   0  0  0  0  0  0  0  0  0  0  0  0
   10.6603    0.5000    0.0000 C   0  0  0  0  0  0  0  0  0  0  0  0
    6.3301   -2.0000    0.0000 C   0  0  0  0  0  0  0  0  0  0  0  0
   12.3923    3.5000    0.0000 C   0  0  0  0  0  0  0  0  0  0  0  0
    2.8660   -2.0000    0.0000 C   0  0  0  0  0  0  0  0  0  0  0  0
   13.2583    1.0000    0.0000 C   0  0  0  0  0  0  0  0  0  0  0  0
    4.5981   -4.0000    0.0000 C   0  0  0  0  0  0  0  0  0  0  0  0
   13.2583    4.0000    0.0000 C   0  0  0  0  0  0  0  0  0  0  0  0
    2.0000   -2.5000    0.0000 C   0  0  0  0  0  0  0  0  0  0  0  0
    8.0622   -2.0000    0.0000 C   0  0  0  0  0  0  0  0  0  0  0  0
    9.7942   -1.0000    0.0000 C   0  0  0  0  0  0  0  0  0  0  0  0
    9.7942   -2.0000    0.0000 C   0  0  0  0  0  0  0  0  0  0  0  0
    8.9282   -2.5000    0.0000 C   0  0  0  0  0  0  0  0  0  0  0  0
   10.6603   -2.5000    0.0000 C   0  0  0  0  0  0  0  0  0  0  0  0
    8.9282   -3.5000    0.0000 C   0  0  0  0  0  0  0  0  0  0  0  0
   10.6603   -3.5000    0.0000 C   0  0  0  0  0  0  0  0  0  0  0  0
    9.7942   -4.0000    0.0000 C   0  0  0  0  0  0  0  0  0  0  0  0
  1 13  1  0  0  0  0
  1 22  1  0  0  0  0
  2 14  1  0  0  0  0
  2 21  1  0  0  0  0
  3 22  2  0  0  0  0
  4 21  2  0  0  0  0
  5  8  1  0  0  0  0
  5  9  1  0  0  0  0
  5 14  1  0  0  0  0
  6  7  1  0  0  0  0
  6 10  1  0  0  0  0
  6 13  1  0  0  0  0
  7 11  1  0  0  0  0
  8 12  1  0  0  0  0
  9 18  1  0  0  0  0
 10 17  1  0  0  0  0
 11 15  1  0  0  0  0
 12 16  1  0  0  0  0
 15 19  1  0  0  0  0
 16 20  1  0  0  0  0
 21 24  1  0  0  0  0
 22 23  1  0  0  0  0
 23 24  1  0  0  0  0
 23 25  2  0  0  0  0
 24 26  2  0  0  0  0
 25 27  1  0  0  0  0
 26 28  1  0  0  0  0
 27 28  2  0  0  0  0
M  END
> <PUBCHEM_COMPOUND_CID>
8343

> <PUBCHEM_COMPOUND_CANONICALIZED>
1

> <PUBCHEM_CACTVS_COMPLEXITY>
394

> <PUBCHEM_CACTVS_HBOND_ACCEPTOR>
4

> <PUBCHEM_CACTVS_HBOND_DONOR>
0

> <PUBCHEM_CACTVS_ROTATABLE_BOND>
16

> <PUBCHEM_CACTVS_SUBSKEYS>
AAADcfB4OAAAAAAAAAAAAAAAAAAAAAAAAAAwAAAAAAAAAAABAAAAGgAAAAAADQCgmAIyCIAABACIAiDSCAACAAAkAAAIiAEACMgIJjKANRiCMQAkwAEIqYfLyKCOgAAAAAAQAAAAAAAAACAAAAAAAAAAAA==

> <PUBCHEM_IUPAC_OPENEYE_NAME>
bis(2-ethylhexyl) benzene-1,2-dicarboxylate

> <PUBCHEM_IUPAC_CAS_NAME>
benzene-1,2-dicarboxylic acid bis(2-ethylhexyl) ester

> <PUBCHEM_IUPAC_NAME>
bis(2-ethylhexyl) benzene-1,2-dicarboxylate

> <PUBCHEM_IUPAC_SYSTEMATIC_NAME>
bis(2-ethylhexyl) benzene-1,2-dicarboxylate

> <PUBCHEM_IUPAC_TRADITIONAL_NAME>
benzene-1,2-dicarboxylic acid bis(2-ethylhexyl) ester

> <PUBCHEM_IUPAC_INCHI>
InChI=1S/C24H38O4/c1-5-9-13-19(7-3)17-27-23(25)21-15-11-12-16-22(21)24(26)28-18-20(8-4)14-10-6-2/h11-12,15-16,19-20H,5-10,13-14,17-18H2,1-4H3

> <PUBCHEM_IUPAC_INCHIKEY>
BJQHLKABXJIVAM-UHFFFAOYSA-N

> <PUBCHEM_XLOGP3>
7.4

> <PUBCHEM_EXACT_MASS>
390.277

> <PUBCHEM_MOLECULAR_FORMULA>
C24H38O4

> <PUBCHEM_MOLECULAR_WEIGHT>
390.564

> <PUBCHEM_OPENEYE_CAN_SMILES>
CCCCC(CC)COC(=O)C1=CC=CC=C1C(=O)OCC(CC)CCCC

> <PUBCHEM_OPENEYE_ISO_SMILES>
CCCCC(CC)COC(=O)C1=CC=CC=C1C(=O)OCC(CC)CCCC

> <PUBCHEM_CACTVS_TPSA>
52.6

> <PUBCHEM_MONOISOTOPIC_WEIGHT>
390.277

> <PUBCHEM_TOTAL_CHARGE>
0

> <PUBCHEM_HEAVY_ATOM_COUNT>
28

> <PUBCHEM_ATOM_DEF_STEREO_COUNT>
0

> <PUBCHEM_ATOM_UDEF_STEREO_COUNT>
2

> <PUBCHEM_BOND_DEF_STEREO_COUNT>
0

> <PUBCHEM_BOND_UDEF_STEREO_COUNT>
0

> <PUBCHEM_ISOTOPIC_ATOM_COUNT>
0

> <PUBCHEM_COMPONENT_COUNT>
1

> <PUBCHEM_CACTVS_TAUTO_COUNT>
-1

> <PUBCHEM_COORDINATE_TYPE>
1
5
255

> <PUBCHEM_BONDANNOTATIONS>
23  24  8
23  25  8
24  26  8
25  27  8
26  28  8
27  28  8
5  9  3
6  10  3

$$$$
1057
  -OEChem-02061913062D

  9  9  0     0  0  0  0  0  0999 V2000
    4.2690    1.3450    0.0000 O   0  0  0  0  0  0  0  0  0  0  0  0
    2.5369    0.3450    0.0000 O   0  0  0  0  0  0  0  0  0  0  0  0
    6.0010    0.3450    0.0000 O   0  0  0  0  0  0  0  0  0  0  0  0
    4.2690    0.3450    0.0000 C   0  0  0  0  0  0  0  0  0  0  0  0
    3.4030   -0.1550    0.0000 C   0  0  0  0  0  0  0  0  0  0  0  0
    5.1350   -0.1550    0.0000 C   0  0  0  0  0  0  0  0  0  0  0  0
    3.4030   -1.1550    0.0000 C   0  0  0  0  0  0  0  0  0  0  0  0
    5.1350   -1.1550    0.0000 C   0  0  0  0  0  0  0  0  0  0  0  0
    4.2690   -1.6550    0.0000 C   0  0  0  0  0  0  0  0  0  0  0  0
  1  4  1  0  0  0  0
  2  5  1  0  0  0  0
  3  6  1  0  0  0  0
  4  5  2  0  0  0  0
  4  6  1  0  0  0  0
  5  7  1  0  0  0  0
  6  8  2  0  0  0  0
  7  9  2  0  0  0  0
  8  9  1  0  0  0  0
M  END
> <PUBCHEM_COMPOUND_CID>
1057

> <PUBCHEM_COMPOUND_CANONICALIZED>
1

> <PUBCHEM_CACTVS_COMPLEXITY>
84.3

> <PUBCHEM_CACTVS_HBOND_ACCEPTOR>
3

> <PUBCHEM_CACTVS_HBOND_DONOR>
3

> <PUBCHEM_CACTVS_ROTATABLE_BOND>
0

> <PUBCHEM_CACTVS_SUBSKEYS>
AAADcYBgMAAAAAAAAAAAAAAAAAAAAAAAAAAwAAAAAAAAAAABAAAAGgAACAAACASAkAAwBoAAAgCAACBCAAACAAAgIAAIiAAGiIgJJyKCERKAcAElwBUJmAeAYAQAAAAACAAAQAAAAAAQAACAAAAAAAAAAA==

> <PUBCHEM_IUPAC_OPENEYE_NAME>
benzene-1,2,3-triol

> <PUBCHEM_IUPAC_CAS_NAME>
benzene-1,2,3-triol

> <PUBCHEM_IUPAC_NAME>
benzene-1,2,3-triol

> <PUBCHEM_IUPAC_SYSTEMATIC_NAME>
benzene-1,2,3-triol

> <PUBCHEM_IUPAC_TRADITIONAL_NAME>
pyrogallol

> <PUBCHEM_IUPAC_INCHI>
InChI=1S/C6H6O3/c7-4-2-1-3-5(8)6(4)9/h1-3,7-9H

> <PUBCHEM_IUPAC_INCHIKEY>
WQGWDDDVZFFDIG-UHFFFAOYSA-N

> <PUBCHEM_XLOGP3>
0.5

> <PUBCHEM_EXACT_MASS>
126.032

> <PUBCHEM_MOLECULAR_FORMULA>
C6H6O3

> <PUBCHEM_MOLECULAR_WEIGHT>
126.111

> <PUBCHEM_OPENEYE_CAN_SMILES>
C1=CC(=C(C(=C1)O)O)O

> <PUBCHEM_OPENEYE_ISO_SMILES>
C1=CC(=C(C(=C1)O)O)O

> <PUBCHEM_CACTVS_TPSA>
60.7

> <PUBCHEM_MONOISOTOPIC_WEIGHT>
126.032

> <PUBCHEM_TOTAL_CHARGE>
0

> <PUBCHEM_HEAVY_ATOM_COUNT>
9

> <PUBCHEM_ATOM_DEF_STEREO_COUNT>
0

> <PUBCHEM_ATOM_UDEF_STEREO_COUNT>
0

> <PUBCHEM_BOND_DEF_STEREO_COUNT>
0

> <PUBCHEM_BOND_UDEF_STEREO_COUNT>
0

> <PUBCHEM_ISOTOPIC_ATOM_COUNT>
0

> <PUBCHEM_COMPONENT_COUNT>
1

> <PUBCHEM_CACTVS_TAUTO_COUNT>
-1

> <PUBCHEM_COORDINATE_TYPE>
1
5
255

> <PUBCHEM_BONDANNOTATIONS>
4  5  8
4  6  8
5  7  8
6  8  8
7  9  8
8  9  8

$$$$
7515
  -OEChem-02061913072D

  8  8  0     0  0  0  0  0  0999 V2000
    2.8660    1.2500    0.0000 N   0  0  0  0  0  0  0  0  0  0  0  0
    2.8660    0.2500    0.0000 C   0  0  0  0  0  0  0  0  0  0  0  0
    2.0000   -0.2500    0.0000 C   0  0  0  0  0  0  0  0  0  0  0  0
    3.7320   -0.2500    0.0000 C   0  0  0  0  0  0  0  0  0  0  0  0
    2.0000   -1.2500    0.0000 C   0  0  0  0  0  0  0  0  0  0  0  0
    3.7320   -1.2500    0.0000 C   0  0  0  0  0  0  0  0  0  0  0  0
    2.8660   -1.7500    0.0000 C   0  0  0  0  0  0  0  0  0  0  0  0
    3.7320    1.7500    0.0000 C   0  0  0  0  0  0  0  0  0  0  0  0
  1  2  1  0  0  0  0
  1  8  1  0  0  0  0
  2  3  2  0  0  0  0
  2  4  1  0  0  0  0
  3  5  1  0  0  0  0
  4  6  2  0  0  0  0
  5  7  2  0  0  0  0
  6  7  1  0  0  0  0
M  END
> <PUBCHEM_COMPOUND_CID>
7515

> <PUBCHEM_COMPOUND_CANONICALIZED>
1

> <PUBCHEM_CACTVS_COMPLEXITY>
55.4

> <PUBCHEM_CACTVS_HBOND_ACCEPTOR>
1

> <PUBCHEM_CACTVS_HBOND_DONOR>
1

> <PUBCHEM_CACTVS_ROTATABLE_BOND>
1

> <PUBCHEM_CACTVS_SUBSKEYS>
AAADccBiAAAAAAAAAAAAAAAAAAAAAAAAAAAwAAAAAAAAAAABAAAAHAAQAAAACAiBEAQywILAAACAACRCQACCAAAhAgAIiIAIZIgIICLAkZGEIAhgkABIyAcQAAAAAAAAAAAAAAAAAAAAAAAAAAAAAAAAAA==

> <PUBCHEM_IUPAC_OPENEYE_NAME>
~{N}-methylaniline

> <PUBCHEM_IUPAC_CAS_NAME>
~{N}-methylaniline

> <PUBCHEM_IUPAC_NAME>
~{N}-methylaniline

> <PUBCHEM_IUPAC_SYSTEMATIC_NAME>
~{N}-methylaniline

> <PUBCHEM_IUPAC_TRADITIONAL_NAME>
methyl(phenyl)amine

> <PUBCHEM_IUPAC_INCHI>
InChI=1S/C7H9N/c1-8-7-5-3-2-4-6-7/h2-6,8H,1H3

> <PUBCHEM_IUPAC_INCHIKEY>
AFBPFSWMIHJQDM-UHFFFAOYSA-N

> <PUBCHEM_XLOGP3>
1.7

> <PUBCHEM_EXACT_MASS>
107.073

> <PUBCHEM_MOLECULAR_FORMULA>
C7H9N

> <PUBCHEM_MOLECULAR_WEIGHT>
107.156

> <PUBCHEM_OPENEYE_CAN_SMILES>
CNC1=CC=CC=C1

> <PUBCHEM_OPENEYE_ISO_SMILES>
CNC1=CC=CC=C1

> <PUBCHEM_CACTVS_TPSA>
12

> <PUBCHEM_MONOISOTOPIC_WEIGHT>
107.073

> <PUBCHEM_TOTAL_CHARGE>
0

> <PUBCHEM_HEAVY_ATOM_COUNT>
8

> <PUBCHEM_ATOM_DEF_STEREO_COUNT>
0

> <PUBCHEM_ATOM_UDEF_STEREO_COUNT>
0

> <PUBCHEM_BOND_DEF_STEREO_COUNT>
0

> <PUBCHEM_BOND_UDEF_STEREO_COUNT>
0

> <PUBCHEM_ISOTOPIC_ATOM_COUNT>
0

> <PUBCHEM_COMPONENT_COUNT>
1

> <PUBCHEM_CACTVS_TAUTO_COUNT>
-1

> <PUBCHEM_COORDINATE_TYPE>
1
5
255

> <PUBCHEM_BONDANNOTATIONS>
2  3  8
2  4  8
3  5  8
4  6  8
5  7  8
6  7  8

$$$$
7242
  -OEChem-02061913072D

  8  8  0     0  0  0  0  0  0999 V2000
    3.7320    1.3450    0.0000 N   0  0  0  0  0  0  0  0  0  0  0  0
    2.8660   -0.1550    0.0000 C   0  0  0  0  0  0  0  0  0  0  0  0
    3.7320    0.3450    0.0000 C   0  0  0  0  0  0  0  0  0  0  0  0
    2.8660   -1.1550    0.0000 C   0  0  0  0  0  0  0  0  0  0  0  0
    4.5981   -0.1550    0.0000 C   0  0  0  0  0  0  0  0  0  0  0  0
    2.0000    0.3450    0.0000 C   0  0  0  0  0  0  0  0  0  0  0  0
    3.7320   -1.6550    0.0000 C   0  0  0  0  0  0  0  0  0  0  0  0
    4.5981   -1.1550    0.0000 C   0  0  0  0  0  0  0  0  0  0  0  0
  1  3  1  0  0  0  0
  2  3  1  0  0  0  0
  2  4  2  0  0  0  0
  2  6  1  0  0  0  0
  3  5  2  0  0  0  0
  4  7  1  0  0  0  0
  5  8  1  0  0  0  0
  7  8  2  0  0  0  0
M  END
> <PUBCHEM_COMPOUND_CID>
7242

> <PUBCHEM_COMPOUND_CANONICALIZED>
1

> <PUBCHEM_CACTVS_COMPLEXITY>
70.8

> <PUBCHEM_CACTVS_HBOND_ACCEPTOR>
1

> <PUBCHEM_CACTVS_HBOND_DONOR>
1

> <PUBCHEM_CACTVS_ROTATABLE_BOND>
0

> <PUBCHEM_CACTVS_SUBSKEYS>
AAADccBiAAAAAAAAAAAAAAAAAAAAAAAAAAAwAAAAAAAAAAABAAAAHAAQAAAADAiBGAAywIBAAACAAiRCQACCAAAgAgAIiAAAZIgIICKAkZGAIABgkAAIyAcQgAAOAAAAAAACAAAAAAAAAAQAAAAAAAAAAA==

> <PUBCHEM_IUPAC_OPENEYE_NAME>
2-methylaniline

> <PUBCHEM_IUPAC_CAS_NAME>
2-methylaniline

> <PUBCHEM_IUPAC_NAME>
2-methylaniline

> <PUBCHEM_IUPAC_SYSTEMATIC_NAME>
2-methylaniline

> <PUBCHEM_IUPAC_TRADITIONAL_NAME>
o-toluidine

> <PUBCHEM_IUPAC_INCHI>
InChI=1S/C7H9N/c1-6-4-2-3-5-7(6)8/h2-5H,8H2,1H3

> <PUBCHEM_IUPAC_INCHIKEY>
RNVCVTLRINQCPJ-UHFFFAOYSA-N

> <PUBCHEM_XLOGP3>
1.3

> <PUBCHEM_EXACT_MASS>
107.073

> <PUBCHEM_MOLECULAR_FORMULA>
C7H9N

> <PUBCHEM_MOLECULAR_WEIGHT>
107.156

> <PUBCHEM_OPENEYE_CAN_SMILES>
CC1=CC=CC=C1N

> <PUBCHEM_OPENEYE_ISO_SMILES>
CC1=CC=CC=C1N

> <PUBCHEM_CACTVS_TPSA>
26

> <PUBCHEM_MONOISOTOPIC_WEIGHT>
107.073

> <PUBCHEM_TOTAL_CHARGE>
0

> <PUBCHEM_HEAVY_ATOM_COUNT>
8

> <PUBCHEM_ATOM_DEF_STEREO_COUNT>
0

> <PUBCHEM_ATOM_UDEF_STEREO_COUNT>
0

> <PUBCHEM_BOND_DEF_STEREO_COUNT>
0

> <PUBCHEM_BOND_UDEF_STEREO_COUNT>
0

> <PUBCHEM_ISOTOPIC_ATOM_COUNT>
0

> <PUBCHEM_COMPONENT_COUNT>
1

> <PUBCHEM_CACTVS_TAUTO_COUNT>
-1

> <PUBCHEM_COORDINATE_TYPE>
1
5
255

> <PUBCHEM_BONDANNOTATIONS>
2  3  8
2  4  8
3  5  8
4  7  8
5  8  8
7  8  8

$$$$
7361
  -OEChem-02061913072D

  7  7  0     0  0  0  0  0  0999 V2000
    2.8090   -0.3239    0.0000 O   0  0  0  0  0  0  0  0  0  0  0  0
    4.7770   -1.0233    0.0000 O   0  0  0  0  0  0  0  0  0  0  0  0
    3.6180    0.2638    0.0000 C   0  0  0  0  0  0  0  0  0  0  0  0
    4.5691   -0.0452    0.0000 C   0  0  0  0  0  0  0  0  0  0  0  0
    3.3090    1.2149    0.0000 C   0  0  0  0  0  0  0  0  0  0  0  0
    2.3090    1.2149    0.0000 C   0  0  0  0  0  0  0  0  0  0  0  0
    2.0000    0.2638    0.0000 C   0  0  0  0  0  0  0  0  0  0  0  0
  1  3  1  0  0  0  0
  1  7  1  0  0  0  0
  2  4  1  0  0  0  0
  3  4  1  0  0  0  0
  3  5  2  0  0  0  0
  5  6  1  0  0  0  0
  6  7  2  0  0  0  0
M  END
> <PUBCHEM_COMPOUND_CID>
7361

> <PUBCHEM_COMPOUND_CANONICALIZED>
1

> <PUBCHEM_CACTVS_COMPLEXITY>
54

> <PUBCHEM_CACTVS_HBOND_ACCEPTOR>
2

> <PUBCHEM_CACTVS_HBOND_DONOR>
1

> <PUBCHEM_CACTVS_ROTATABLE_BOND>
1

> <PUBCHEM_CACTVS_SUBSKEYS>
AAADcYBgMAAAAAAAAAAAAAAAAAAAASAAAAAAAAAAAAAAAAABgAAAGgAACAAACASgkAIwBIAABkCIAKhSgAICCAAkIAAIiAFGCMgNNjKENRqCWSCkwBELuYaIJAAAAAAAAAAAAAAAAAAAAAAAAAAAAAAAAA==

> <PUBCHEM_IUPAC_OPENEYE_NAME>
2-furylmethanol

> <PUBCHEM_IUPAC_CAS_NAME>
2-furanylmethanol

> <PUBCHEM_IUPAC_NAME>
furan-2-ylmethanol

> <PUBCHEM_IUPAC_SYSTEMATIC_NAME>
furan-2-ylmethanol

> <PUBCHEM_IUPAC_TRADITIONAL_NAME>
2-furylmethanol

> <PUBCHEM_IUPAC_INCHI>
InChI=1S/C5H6O2/c6-4-5-2-1-3-7-5/h1-3,6H,4H2

> <PUBCHEM_IUPAC_INCHIKEY>
XPFVYQJUAUNWIW-UHFFFAOYSA-N

> <PUBCHEM_XLOGP3>
0.3

> <PUBCHEM_EXACT_MASS>
98.037

> <PUBCHEM_MOLECULAR_FORMULA>
C5H6O2

> <PUBCHEM_MOLECULAR_WEIGHT>
98.101

> <PUBCHEM_OPENEYE_CAN_SMILES>
C1=COC(=C1)CO

> <PUBCHEM_OPENEYE_ISO_SMILES>
C1=COC(=C1)CO

> <PUBCHEM_CACTVS_TPSA>
33.4

> <PUBCHEM_MONOISOTOPIC_WEIGHT>
98.037

> <PUBCHEM_TOTAL_CHARGE>
0

> <PUBCHEM_HEAVY_ATOM_COUNT>
7

> <PUBCHEM_ATOM_DEF_STEREO_COUNT>
0

> <PUBCHEM_ATOM_UDEF_STEREO_COUNT>
0

> <PUBCHEM_BOND_DEF_STEREO_COUNT>
0

> <PUBCHEM_BOND_UDEF_STEREO_COUNT>
0

> <PUBCHEM_ISOTOPIC_ATOM_COUNT>
0

> <PUBCHEM_COMPONENT_COUNT>
1

> <PUBCHEM_CACTVS_TAUTO_COUNT>
-1

> <PUBCHEM_COORDINATE_TYPE>
1
5
255

> <PUBCHEM_BONDANNOTATIONS>
1  3  8
1  7  8
3  5  8
5  6  8
6  7  8

$$$$
6319
  -OEChem-02061913062D

 20 22  0     0  0  0  0  0  0999 V2000
    4.5981    2.0000    0.0000 N   0  0  0  0  0  0  0  0  0  0  0  0
    4.5981   -2.0000    0.0000 N   0  0  0  0  0  0  0  0  0  0  0  0
    4.5981    1.0000    0.0000 C   0  0  0  0  0  0  0  0  0  0  0  0
    4.5981   -1.0000    0.0000 C   0  0  0  0  0  0  0  0  0  0  0  0
    5.4641   -0.5000    0.0000 C   0  0  0  0  0  0  0  0  0  0  0  0
    5.4641    0.5000    0.0000 C   0  0  0  0  0  0  0  0  0  0  0  0
    3.7320   -0.5000    0.0000 C   0  0  0  0  0  0  0  0  0  0  0  0
    3.7320    0.5000    0.0000 C   0  0  0  0  0  0  0  0  0  0  0  0
    5.4641    2.5000    0.0000 C   0  0  0  0  0  0  0  0  0  0  0  0
    3.7320   -2.5000    0.0000 C   0  0  0  0  0  0  0  0  0  0  0  0
    2.8660   -2.0000    0.0000 C   0  0  0  0  0  0  0  0  0  0  0  0
    6.3301    2.0000    0.0000 C   0  0  0  0  0  0  0  0  0  0  0  0
    3.7320   -3.5000    0.0000 C   0  0  0  0  0  0  0  0  0  0  0  0
    5.4641    3.5000    0.0000 C   0  0  0  0  0  0  0  0  0  0  0  0
    7.1962    2.5000    0.0000 C   0  0  0  0  0  0  0  0  0  0  0  0
    2.0000   -2.5000    0.0000 C   0  0  0  0  0  0  0  0  0  0  0  0
    2.8660   -4.0000    0.0000 C   0  0  0  0  0  0  0  0  0  0  0  0
    6.3301    4.0000    0.0000 C   0  0  0  0  0  0  0  0  0  0  0  0
    7.1962    3.5000    0.0000 C   0  0  0  0  0  0  0  0  0  0  0  0
    2.0000   -3.5000    0.0000 C   0  0  0  0  0  0  0  0  0  0  0  0
  1  3  1  0  0  0  0
  1  9  1  0  0  0  0
  2  4  1  0  0  0  0
  2 10  1  0  0  0  0
  3  6  2  0  0  0  0
  3  8  1  0  0  0  0
  4  5  2  0  0  0  0
  4  7  1  0  0  0  0
  5  6  1  0  0  0  0
  7  8  2  0  0  0  0
  9 12  2  0  0  0  0
  9 14  1  0  0  0  0
 10 11  2  0  0  0  0
 10 13  1  0  0  0  0
 11 16  1  0  0  0  0
 12 15  1  0  0  0  0
 13 17  2  0  0  0  0
 14 18  2  0  0  0  0
 15 19  2  0  0  0  0
 16 20  2  0  0  0  0
 17 20  1  0  0  0  0
 18 19  1  0  0  0  0
M  END
> <PUBCHEM_COMPOUND_CID>
6319

> <PUBCHEM_COMPOUND_CANONICALIZED>
1

> <PUBCHEM_CACTVS_COMPLEXITY>
231

> <PUBCHEM_CACTVS_HBOND_ACCEPTOR>
2

> <PUBCHEM_CACTVS_HBOND_DONOR>
2

> <PUBCHEM_CACTVS_ROTATABLE_BOND>
4

> <PUBCHEM_CACTVS_SUBSKEYS>
AAADceB7AAAAAAAAAAAAAAAAAAAAAAAAAAAwYMAAAAAAAAABUAAAHAAQAAAACAiBEAAwwILAAACAACRCQACCAAAhAgAIiAAAZIgIIGLAkZGEIAhgkADIyAcQAAAAAACAAAAAAAAAAQAAAAAAAAAAAAAAAA==

> <PUBCHEM_IUPAC_OPENEYE_NAME>
~{N}1,~{N}4-diphenylbenzene-1,4-diamine

> <PUBCHEM_IUPAC_CAS_NAME>
~{N}1,~{N}4-diphenylbenzene-1,4-diamine

> <PUBCHEM_IUPAC_NAME>
1-~{N},4-~{N}-diphenylbenzene-1,4-diamine

> <PUBCHEM_IUPAC_SYSTEMATIC_NAME>
~{N}1,~{N}4-diphenylbenzene-1,4-diamine

> <PUBCHEM_IUPAC_TRADITIONAL_NAME>
(4-anilinophenyl)-phenyl-amine

> <PUBCHEM_IUPAC_INCHI>
InChI=1S/C18H16N2/c1-3-7-15(8-4-1)19-17-11-13-18(14-12-17)20-16-9-5-2-6-10-16/h1-14,19-20H

> <PUBCHEM_IUPAC_INCHIKEY>
UTGQNNCQYDRXCH-UHFFFAOYSA-N

> <PUBCHEM_XLOGP3>
5

> <PUBCHEM_EXACT_MASS>
260.131

> <PUBCHEM_MOLECULAR_FORMULA>
C18H16N2

> <PUBCHEM_MOLECULAR_WEIGHT>
260.34

> <PUBCHEM_OPENEYE_CAN_SMILES>
C1=CC=C(C=C1)NC2=CC=C(C=C2)NC3=CC=CC=C3

> <PUBCHEM_OPENEYE_ISO_SMILES>
C1=CC=C(C=C1)NC2=CC=C(C=C2)NC3=CC=CC=C3

> <PUBCHEM_CACTVS_TPSA>
24.1

> <PUBCHEM_MONOISOTOPIC_WEIGHT>
260.131

> <PUBCHEM_TOTAL_CHARGE>
0

> <PUBCHEM_HEAVY_ATOM_COUNT>
20

> <PUBCHEM_ATOM_DEF_STEREO_COUNT>
0

> <PUBCHEM_ATOM_UDEF_STEREO_COUNT>
0

> <PUBCHEM_BOND_DEF_STEREO_COUNT>
0

> <PUBCHEM_BOND_UDEF_STEREO_COUNT>
0

> <PUBCHEM_ISOTOPIC_ATOM_COUNT>
0

> <PUBCHEM_COMPONENT_COUNT>
1

> <PUBCHEM_CACTVS_TAUTO_COUNT>
-1

> <PUBCHEM_COORDINATE_TYPE>
1
5
255

> <PUBCHEM_BONDANNOTATIONS>
10  11  8
10  13  8
11  16  8
12  15  8
13  17  8
14  18  8
15  19  8
16  20  8
17  20  8
18  19  8
3  6  8
3  8  8
4  5  8
4  7  8
5  6  8
7  8  8
9  12  8
9  14  8

$$$$
6115
  -OEChem-02061913062D

  7  7  0     0  0  0  0  0  0999 V2000
    2.8660    1.3450    0.0000 N   0  0  0  0  0  0  0  0  0  0  0  0
    2.8660    0.3450    0.0000 C   0  0  0  0  0  0  0  0  0  0  0  0
    2.0000   -0.1550    0.0000 C   0  0  0  0  0  0  0  0  0  0  0  0
    3.7320   -0.1550    0.0000 C   0  0  0  0  0  0  0  0  0  0  0  0
    2.0000   -1.1550    0.0000 C   0  0  0  0  0  0  0  0  0  0  0  0
    3.7320   -1.1550    0.0000 C   0  0  0  0  0  0  0  0  0  0  0  0
    2.8660   -1.6550    0.0000 C   0  0  0  0  0  0  0  0  0  0  0  0
  1  2  1  0  0  0  0
  2  3  2  0  0  0  0
  2  4  1  0  0  0  0
  3  5  1  0  0  0  0
  4  6  2  0  0  0  0
  5  7  2  0  0  0  0
  6  7  1  0  0  0  0
M  END
> <PUBCHEM_COMPOUND_CID>
6115

> <PUBCHEM_COMPOUND_CANONICALIZED>
1

> <PUBCHEM_CACTVS_COMPLEXITY>
46.1

> <PUBCHEM_CACTVS_HBOND_ACCEPTOR>
1

> <PUBCHEM_CACTVS_HBOND_DONOR>
1

> <PUBCHEM_CACTVS_ROTATABLE_BOND>
0

> <PUBCHEM_CACTVS_SUBSKEYS>
AAADcYBiAAAAAAAAAAAAAAAAAAAAAAAAAAAwAAAAAAAAAAABAAAAHAAQAAAACAiBEAAwwIBAAACAACRCQACCAAAgAgAIiAAAZIgIICKAkZGAIABgkAAIyAcQAAAAAAAAAAAAAAAAAAAAAAAAAAAAAAAAAA==

> <PUBCHEM_IUPAC_OPENEYE_NAME>
aniline

> <PUBCHEM_IUPAC_CAS_NAME>
aniline

> <PUBCHEM_IUPAC_NAME>
aniline

> <PUBCHEM_IUPAC_SYSTEMATIC_NAME>
aniline

> <PUBCHEM_IUPAC_TRADITIONAL_NAME>
phenylamine

> <PUBCHEM_IUPAC_INCHI>
InChI=1S/C6H7N/c7-6-4-2-1-3-5-6/h1-5H,7H2

> <PUBCHEM_IUPAC_INCHIKEY>
PAYRUJLWNCNPSJ-UHFFFAOYSA-N

> <PUBCHEM_XLOGP3>
0.9

> <PUBCHEM_EXACT_MASS>
93.058

> <PUBCHEM_MOLECULAR_FORMULA>
C6H7N

> <PUBCHEM_MOLECULAR_WEIGHT>
93.129

> <PUBCHEM_OPENEYE_CAN_SMILES>
C1=CC=C(C=C1)N

> <PUBCHEM_OPENEYE_ISO_SMILES>
C1=CC=C(C=C1)N

> <PUBCHEM_CACTVS_TPSA>
26

> <PUBCHEM_MONOISOTOPIC_WEIGHT>
93.058

> <PUBCHEM_TOTAL_CHARGE>
0

> <PUBCHEM_HEAVY_ATOM_COUNT>
7

> <PUBCHEM_ATOM_DEF_STEREO_COUNT>
0

> <PUBCHEM_ATOM_UDEF_STEREO_COUNT>
0

> <PUBCHEM_BOND_DEF_STEREO_COUNT>
0

> <PUBCHEM_BOND_UDEF_STEREO_COUNT>
0

> <PUBCHEM_ISOTOPIC_ATOM_COUNT>
0

> <PUBCHEM_COMPONENT_COUNT>
1

> <PUBCHEM_CACTVS_TAUTO_COUNT>
-1

> <PUBCHEM_COORDINATE_TYPE>
1
5
255

> <PUBCHEM_BONDANNOTATIONS>
2  3  8
2  4  8
3  5  8
4  6  8
5  7  8
6  7  8

$$$$
8561
  -OEChem-02061913072D

 22 22  0     0  0  0  0  0  0999 V2000
    6.3301   -2.2500    0.0000 O   0  0  0  0  0  0  0  0  0  0  0  0
    9.7942   -0.2500    0.0000 O   0  0  0  0  0  0  0  0  0  0  0  0
    7.1962   -0.7500    0.0000 O   0  0  0  0  0  0  0  0  0  0  0  0
    8.0622   -0.2500    0.0000 O   0  0  0  0  0  0  0  0  0  0  0  0
   10.6603    2.2500    0.0000 C   0  0  0  0  0  0  0  0  0  0  0  0
    3.7320   -1.7500    0.0000 C   0  0  0  0  0  0  0  0  0  0  0  0
   10.6603    1.2500    0.0000 C   0  0  0  0  0  0  0  0  0  0  0  0
    4.5981   -2.2500    0.0000 C   0  0  0  0  0  0  0  0  0  0  0  0
   11.5263    2.7500    0.0000 C   0  0  0  0  0  0  0  0  0  0  0  0
    2.8660   -2.2500    0.0000 C   0  0  0  0  0  0  0  0  0  0  0  0
    9.7942    0.7500    0.0000 C   0  0  0  0  0  0  0  0  0  0  0  0
    5.4641   -1.7500    0.0000 C   0  0  0  0  0  0  0  0  0  0  0  0
    2.0000   -1.7500    0.0000 C   0  0  0  0  0  0  0  0  0  0  0  0
   11.5263    3.7500    0.0000 C   0  0  0  0  0  0  0  0  0  0  0  0
    8.9282   -1.7500    0.0000 C   0  0  0  0  0  0  0  0  0  0  0  0
    8.0622   -2.2500    0.0000 C   0  0  0  0  0  0  0  0  0  0  0  0
    8.9282   -0.7500    0.0000 C   0  0  0  0  0  0  0  0  0  0  0  0
    7.1962   -1.7500    0.0000 C   0  0  0  0  0  0  0  0  0  0  0  0
    8.0622   -3.2500    0.0000 C   0  0  0  0  0  0  0  0  0  0  0  0
    9.7942   -2.2500    0.0000 C   0  0  0  0  0  0  0  0  0  0  0  0
    8.9282   -3.7500    0.0000 C   0  0  0  0  0  0  0  0  0  0  0  0
    9.7942   -3.2500    0.0000 C   0  0  0  0  0  0  0  0  0  0  0  0
  1 12  1  0  0  0  0
  1 18  1  0  0  0  0
  2 11  1  0  0  0  0
  2 17  1  0  0  0  0
  3 18  2  0  0  0  0
  4 17  2  0  0  0  0
  5  7  1  0  0  0  0
  5  9  1  0  0  0  0
  6  8  1  0  0  0  0
  6 10  1  0  0  0  0
  7 11  1  0  0  0  0
  8 12  1  0  0  0  0
  9 14  1  0  0  0  0
 10 13  1  0  0  0  0
 15 16  1  0  0  0  0
 15 17  1  0  0  0  0
 15 20  2  0  0  0  0
 16 18  1  0  0  0  0
 16 19  2  0  0  0  0
 19 21  1  0  0  0  0
 20 22  1  0  0  0  0
 21 22  2  0  0  0  0
M  END
> <PUBCHEM_COMPOUND_CID>
8561

> <PUBCHEM_COMPOUND_CANONICALIZED>
1

> <PUBCHEM_CACTVS_COMPLEXITY>
295

> <PUBCHEM_CACTVS_HBOND_ACCEPTOR>
4

> <PUBCHEM_CACTVS_HBOND_DONOR>
0

> <PUBCHEM_CACTVS_ROTATABLE_BOND>
12

> <PUBCHEM_CACTVS_SUBSKEYS>
AAADceB4OAAAAAAAAAAAAAAAAAAAAAAAAAAwAAAAAAAAAAABAAAAGgAAAAAADACgmAIyCIAABACIAiDSCAACAAAkAAAIiAEACMgIJjKANRiCMQAkwAEIqYfLyKCOgAAAAAAQAAAAAAAAACAAAAAAAAAAAA==

> <PUBCHEM_IUPAC_OPENEYE_NAME>
dipentyl benzene-1,2-dicarboxylate

> <PUBCHEM_IUPAC_CAS_NAME>
benzene-1,2-dicarboxylic acid dipentyl ester

> <PUBCHEM_IUPAC_NAME>
dipentyl benzene-1,2-dicarboxylate

> <PUBCHEM_IUPAC_SYSTEMATIC_NAME>
dipentyl benzene-1,2-dicarboxylate

> <PUBCHEM_IUPAC_TRADITIONAL_NAME>
benzene-1,2-dicarboxylic acid diamyl ester

> <PUBCHEM_IUPAC_INCHI>
InChI=1S/C18H26O4/c1-3-5-9-13-21-17(19)15-11-7-8-12-16(15)18(20)22-14-10-6-4-2/h7-8,11-12H,3-6,9-10,13-14H2,1-2H3

> <PUBCHEM_IUPAC_INCHIKEY>
IPKKHRVROFYTEK-UHFFFAOYSA-N

> <PUBCHEM_XLOGP3>
5.8

> <PUBCHEM_EXACT_MASS>
306.183

> <PUBCHEM_MOLECULAR_FORMULA>
C18H26O4

> <PUBCHEM_MOLECULAR_WEIGHT>
306.402

> <PUBCHEM_OPENEYE_CAN_SMILES>
CCCCCOC(=O)C1=CC=CC=C1C(=O)OCCCCC

> <PUBCHEM_OPENEYE_ISO_SMILES>
CCCCCOC(=O)C1=CC=CC=C1C(=O)OCCCCC

> <PUBCHEM_CACTVS_TPSA>
52.6

> <PUBCHEM_MONOISOTOPIC_WEIGHT>
306.183

> <PUBCHEM_TOTAL_CHARGE>
0

> <PUBCHEM_HEAVY_ATOM_COUNT>
22

> <PUBCHEM_ATOM_DEF_STEREO_COUNT>
0

> <PUBCHEM_ATOM_UDEF_STEREO_COUNT>
0

> <PUBCHEM_BOND_DEF_STEREO_COUNT>
0

> <PUBCHEM_BOND_UDEF_STEREO_COUNT>
0

> <PUBCHEM_ISOTOPIC_ATOM_COUNT>
0

> <PUBCHEM_COMPONENT_COUNT>
1

> <PUBCHEM_CACTVS_TAUTO_COUNT>
-1

> <PUBCHEM_COORDINATE_TYPE>
1
5
255

> <PUBCHEM_BONDANNOTATIONS>
15  16  8
15  20  8
16  19  8
19  21  8
20  22  8
21  22  8

$$$$
31236
  -OEChem-02061913062D

 10 10  0     0  0  0  0  0  0999 V2000
    2.8660    0.1900    0.0000 O   0  0  0  0  0  0  0  0  0  0  0  0
    4.5981    2.1900    0.0000 O   0  0  0  0  0  0  0  0  0  0  0  0
    3.7320    0.6900    0.0000 C   0  0  0  0  0  0  0  0  0  0  0  0
    2.8660   -0.8100    0.0000 C   0  0  0  0  0  0  0  0  0  0  0  0
    3.7320    1.6900    0.0000 C   0  0  0  0  0  0  0  0  0  0  0  0
    2.0000   -1.3100    0.0000 C   0  0  0  0  0  0  0  0  0  0  0  0
    3.7320   -1.3100    0.0000 C   0  0  0  0  0  0  0  0  0  0  0  0
    2.0000   -2.3100    0.0000 C   0  0  0  0  0  0  0  0  0  0  0  0
    3.7320   -2.3100    0.0000 C   0  0  0  0  0  0  0  0  0  0  0  0
    2.8660   -2.8100    0.0000 C   0  0  0  0  0  0  0  0  0  0  0  0
  1  3  1  0  0  0  0
  1  4  1  0  0  0  0
  2  5  1  0  0  0  0
  3  5  1  0  0  0  0
  4  6  2  0  0  0  0
  4  7  1  0  0  0  0
  6  8  1  0  0  0  0
  7  9  2  0  0  0  0
  8 10  2  0  0  0  0
  9 10  1  0  0  0  0
M  END
> <PUBCHEM_COMPOUND_CID>
31236

> <PUBCHEM_COMPOUND_CANONICALIZED>
1

> <PUBCHEM_CACTVS_COMPLEXITY>
77.3

> <PUBCHEM_CACTVS_HBOND_ACCEPTOR>
2

> <PUBCHEM_CACTVS_HBOND_DONOR>
1

> <PUBCHEM_CACTVS_ROTATABLE_BOND>
3

> <PUBCHEM_CACTVS_SUBSKEYS>
AAADccBwMAAAAAAAAAAAAAAAAAAAAAAAAAAwAAAAAAAAAAABAAAAGgAACAAACASgkAIwBoAABgCAACBCAAACCAAgIAAIiAAGCIgNNiKEMRqCOCCkwBELqAeAQAAAAAAAAAAAAAAAAAAAAAAAAAAAAAAAAA==

> <PUBCHEM_IUPAC_OPENEYE_NAME>
2-phenoxyethanol

> <PUBCHEM_IUPAC_CAS_NAME>
2-phenoxyethanol

> <PUBCHEM_IUPAC_NAME>
2-phenoxyethanol

> <PUBCHEM_IUPAC_SYSTEMATIC_NAME>
2-phenoxyethanol

> <PUBCHEM_IUPAC_TRADITIONAL_NAME>
2-phenoxyethanol

> <PUBCHEM_IUPAC_INCHI>
InChI=1S/C8H10O2/c9-6-7-10-8-4-2-1-3-5-8/h1-5,9H,6-7H2

> <PUBCHEM_IUPAC_INCHIKEY>
QCDWFXQBSFUVSP-UHFFFAOYSA-N

> <PUBCHEM_XLOGP3>
1.2

> <PUBCHEM_EXACT_MASS>
138.068

> <PUBCHEM_MOLECULAR_FORMULA>
C8H10O2

> <PUBCHEM_MOLECULAR_WEIGHT>
138.166

> <PUBCHEM_OPENEYE_CAN_SMILES>
C1=CC=C(C=C1)OCCO

> <PUBCHEM_OPENEYE_ISO_SMILES>
C1=CC=C(C=C1)OCCO

> <PUBCHEM_CACTVS_TPSA>
29.5

> <PUBCHEM_MONOISOTOPIC_WEIGHT>
138.068

> <PUBCHEM_TOTAL_CHARGE>
0

> <PUBCHEM_HEAVY_ATOM_COUNT>
10

> <PUBCHEM_ATOM_DEF_STEREO_COUNT>
0

> <PUBCHEM_ATOM_UDEF_STEREO_COUNT>
0

> <PUBCHEM_BOND_DEF_STEREO_COUNT>
0

> <PUBCHEM_BOND_UDEF_STEREO_COUNT>
0

> <PUBCHEM_ISOTOPIC_ATOM_COUNT>
0

> <PUBCHEM_COMPONENT_COUNT>
1

> <PUBCHEM_CACTVS_TAUTO_COUNT>
-1

> <PUBCHEM_COORDINATE_TYPE>
1
5
255

> <PUBCHEM_BONDANNOTATIONS>
4  6  8
4  7  8
6  8  8
7  9  8
8  10  8
9  10  8

$$$$
6629
  -OEChem-02061913062D

 11 11  0     0  0  0  0  0  0999 V2000
    3.0000    1.4400    0.0000 O   0  0  0  0  0  0  0  0  0  0  0  0
    3.8660    1.9400    0.0000 O   0  0  0  0  0  0  0  0  0  0  0  0
    3.0000    0.4400    0.0000 C   0  0  0  0  0  0  0  0  0  0  0  0
    3.0000   -0.5600    0.0000 C   0  0  0  0  0  0  0  0  0  0  0  0
    4.0000    0.4400    0.0000 C   0  0  0  0  0  0  0  0  0  0  0  0
    2.0000    0.4400    0.0000 C   0  0  0  0  0  0  0  0  0  0  0  0
    2.1340   -1.0600    0.0000 C   0  0  0  0  0  0  0  0  0  0  0  0
    3.8660   -1.0600    0.0000 C   0  0  0  0  0  0  0  0  0  0  0  0
    2.1340   -2.0600    0.0000 C   0  0  0  0  0  0  0  0  0  0  0  0
    3.8660   -2.0600    0.0000 C   0  0  0  0  0  0  0  0  0  0  0  0
    3.0000   -2.5600    0.0000 C   0  0  0  0  0  0  0  0  0  0  0  0
  1  2  1  0  0  0  0
  1  3  1  0  0  0  0
  3  4  1  0  0  0  0
  3  5  1  0  0  0  0
  3  6  1  0  0  0  0
  4  7  2  0  0  0  0
  4  8  1  0  0  0  0
  7  9  1  0  0  0  0
  8 10  2  0  0  0  0
  9 11  2  0  0  0  0
 10 11  1  0  0  0  0
M  END
> <PUBCHEM_COMPOUND_CID>
6629

> <PUBCHEM_COMPOUND_CANONICALIZED>
1

> <PUBCHEM_CACTVS_COMPLEXITY>
115

> <PUBCHEM_CACTVS_HBOND_ACCEPTOR>
2

> <PUBCHEM_CACTVS_HBOND_DONOR>
1

> <PUBCHEM_CACTVS_ROTATABLE_BOND>
2

> <PUBCHEM_CACTVS_SUBSKEYS>
AAADccBwMAAAAAAAAAAAAAAAAAAAAAAAAAAwAAAAAAAAAAABAAAAGgAADAAADESAmAAyAIAAAACAAiBCAAACAAAgAAAIiAAACIgIJiKAERCAMAAkwAEIiAeAwOAOgAAAAAAAAAAAAAAAAAAAAAAAAAAAAA==

> <PUBCHEM_IUPAC_OPENEYE_NAME>
(1-hydroperoxy-1-methyl-ethyl)benzene

> <PUBCHEM_IUPAC_CAS_NAME>
2-hydroperoxypropan-2-ylbenzene

> <PUBCHEM_IUPAC_NAME>
2-hydroperoxypropan-2-ylbenzene

> <PUBCHEM_IUPAC_SYSTEMATIC_NAME>
2-(dioxidanyl)propan-2-ylbenzene

> <PUBCHEM_IUPAC_TRADITIONAL_NAME>
(1-hydroperoxy-1-methyl-ethyl)benzene

> <PUBCHEM_IUPAC_INCHI>
InChI=1S/C9H12O2/c1-9(2,11-10)8-6-4-3-5-7-8/h3-7,10H,1-2H3

> <PUBCHEM_IUPAC_INCHIKEY>
YQHLDYVWEZKEOX-UHFFFAOYSA-N

> <PUBCHEM_XLOGP3_AA>
1.7

> <PUBCHEM_EXACT_MASS>
152.084

> <PUBCHEM_MOLECULAR_FORMULA>
C9H12O2

> <PUBCHEM_MOLECULAR_WEIGHT>
152.193

> <PUBCHEM_OPENEYE_CAN_SMILES>
CC(C)(C1=CC=CC=C1)OO

> <PUBCHEM_OPENEYE_ISO_SMILES>
CC(C)(C1=CC=CC=C1)OO

> <PUBCHEM_CACTVS_TPSA>
29.5

> <PUBCHEM_MONOISOTOPIC_WEIGHT>
152.084

> <PUBCHEM_TOTAL_CHARGE>
0

> <PUBCHEM_HEAVY_ATOM_COUNT>
11

> <PUBCHEM_ATOM_DEF_STEREO_COUNT>
0

> <PUBCHEM_ATOM_UDEF_STEREO_COUNT>
0

> <PUBCHEM_BOND_DEF_STEREO_COUNT>
0

> <PUBCHEM_BOND_UDEF_STEREO_COUNT>
0

> <PUBCHEM_ISOTOPIC_ATOM_COUNT>
0

> <PUBCHEM_COMPONENT_COUNT>
1

> <PUBCHEM_CACTVS_TAUTO_COUNT>
-1

> <PUBCHEM_COORDINATE_TYPE>
1
5
255

> <PUBCHEM_BONDANNOTATIONS>
10  11  8
4  7  8
4  8  8
7  9  8
8  10  8
9  11  8

$$$$
237332
  -OEChem-02061913072D

  9  9  0     0  0  0  0  0  0999 V2000
    5.0929   -0.6056    0.0000 O   0  0  0  0  0  0  0  0  0  0  0  0
    2.5896    0.3423    0.0000 O   0  0  0  0  0  0  0  0  0  0  0  0
    7.5961    0.3423    0.0000 O   0  0  0  0  0  0  0  0  0  0  0  0
    4.2839   -0.0178    0.0000 C   0  0  0  0  0  0  0  0  0  0  0  0
    4.5929    0.9333    0.0000 C   0  0  0  0  0  0  0  0  0  0  0  0
    3.3328   -0.3268    0.0000 C   0  0  0  0  0  0  0  0  0  0  0  0
    5.9019   -0.0178    0.0000 C   0  0  0  0  0  0  0  0  0  0  0  0
    5.5929    0.9333    0.0000 C   0  0  0  0  0  0  0  0  0  0  0  0
    6.8530   -0.3268    0.0000 C   0  0  0  0  0  0  0  0  0  0  0  0
  1  4  1  0  0  0  0
  1  7  1  0  0  0  0
  2  6  1  0  0  0  0
  3  9  2  0  0  0  0
  4  5  2  0  0  0  0
  4  6  1  0  0  0  0
  5  8  1  0  0  0  0
  7  8  2  0  0  0  0
  7  9  1  0  0  0  0
M  END
> <PUBCHEM_COMPOUND_CID>
237332

> <PUBCHEM_COMPOUND_CANONICALIZED>
1

> <PUBCHEM_CACTVS_COMPLEXITY>
103

> <PUBCHEM_CACTVS_HBOND_ACCEPTOR>
3

> <PUBCHEM_CACTVS_HBOND_DONOR>
1

> <PUBCHEM_CACTVS_ROTATABLE_BOND>
2

> <PUBCHEM_CACTVS_SUBSKEYS>
AAADcYBgMAAAAAAAAAAAAAAAAAAAASAAAAAAAAAAAAAAAAABgAAAGgAACAAACASgkAIwBIAABkCIAKhSgAICCAAkIAAIiAFGCMgNNjKENR6CWSCkwBELuYeIbgRgAAAAAAAAAAAAAAAAAAAAAAAAAAAAAA==

> <PUBCHEM_IUPAC_OPENEYE_NAME>
5-(hydroxymethyl)furan-2-carbaldehyde

> <PUBCHEM_IUPAC_CAS_NAME>
5-(hydroxymethyl)-2-furancarboxaldehyde

> <PUBCHEM_IUPAC_NAME>
5-(hydroxymethyl)furan-2-carbaldehyde

> <PUBCHEM_IUPAC_SYSTEMATIC_NAME>
5-(hydroxymethyl)furan-2-carbaldehyde

> <PUBCHEM_IUPAC_TRADITIONAL_NAME>
5-methylolfurfural

> <PUBCHEM_IUPAC_INCHI>
InChI=1S/C6H6O3/c7-3-5-1-2-6(4-8)9-5/h1-3,8H,4H2

> <PUBCHEM_IUPAC_INCHIKEY>
NOEGNKMFWQHSLB-UHFFFAOYSA-N

> <PUBCHEM_XLOGP3>
-0.6

> <PUBCHEM_EXACT_MASS>
126.032

> <PUBCHEM_MOLECULAR_FORMULA>
C6H6O3

> <PUBCHEM_MOLECULAR_WEIGHT>
126.111

> <PUBCHEM_OPENEYE_CAN_SMILES>
C1=C(OC(=C1)C=O)CO

> <PUBCHEM_OPENEYE_ISO_SMILES>
C1=C(OC(=C1)C=O)CO

> <PUBCHEM_CACTVS_TPSA>
50.4

> <PUBCHEM_MONOISOTOPIC_WEIGHT>
126.032

> <PUBCHEM_TOTAL_CHARGE>
0

> <PUBCHEM_HEAVY_ATOM_COUNT>
9

> <PUBCHEM_ATOM_DEF_STEREO_COUNT>
0

> <PUBCHEM_ATOM_UDEF_STEREO_COUNT>
0

> <PUBCHEM_BOND_DEF_STEREO_COUNT>
0

> <PUBCHEM_BOND_UDEF_STEREO_COUNT>
0

> <PUBCHEM_ISOTOPIC_ATOM_COUNT>
0

> <PUBCHEM_COMPONENT_COUNT>
1

> <PUBCHEM_CACTVS_TAUTO_COUNT>
-1

> <PUBCHEM_COORDINATE_TYPE>
1
5
255

> <PUBCHEM_BONDANNOTATIONS>
1  4  8
1  7  8
4  5  8
5  8  8
7  8  8

$$$$
931
  -OEChem-02061913062D

 10 11  0     0  0  0  0  0  0999 V2000
    3.7320   -0.5000    0.0000 C   0  0  0  0  0  0  0  0  0  0  0  0
    3.7320    0.5000    0.0000 C   0  0  0  0  0  0  0  0  0  0  0  0
    2.8660    1.0000    0.0000 C   0  0  0  0  0  0  0  0  0  0  0  0
    2.8660   -1.0000    0.0000 C   0  0  0  0  0  0  0  0  0  0  0  0
    4.6260   -1.0347    0.0000 C   0  0  0  0  0  0  0  0  0  0  0  0
    4.6260    1.0347    0.0000 C   0  0  0  0  0  0  0  0  0  0  0  0
    2.0000   -0.5000    0.0000 C   0  0  0  0  0  0  0  0  0  0  0  0
    2.0000    0.5000    0.0000 C   0  0  0  0  0  0  0  0  0  0  0  0
    5.5321   -0.5208    0.0000 C   0  0  0  0  0  0  0  0  0  0  0  0
    5.5321    0.5208    0.0000 C   0  0  0  0  0  0  0  0  0  0  0  0
  1  2  1  0  0  0  0
  1  4  2  0  0  0  0
  1  5  1  0  0  0  0
  2  3  2  0  0  0  0
  2  6  1  0  0  0  0
  3  8  1  0  0  0  0
  4  7  1  0  0  0  0
  5  9  2  0  0  0  0
  6 10  2  0  0  0  0
  7  8  2  0  0  0  0
  9 10  1  0  0  0  0
M  END
> <PUBCHEM_COMPOUND_CID>
931

> <PUBCHEM_COMPOUND_CANONICALIZED>
1

> <PUBCHEM_CACTVS_COMPLEXITY>
80.6

> <PUBCHEM_CACTVS_HBOND_ACCEPTOR>
0

> <PUBCHEM_CACTVS_HBOND_DONOR>
0

> <PUBCHEM_CACTVS_ROTATABLE_BOND>
0

> <PUBCHEM_CACTVS_SUBSKEYS>
AAADccBwAAAAAAAAAAAAAAAAAAAAAAAAAAAwYAAAAAAAAADBUAAAGAAAAAAADACAGAAwAMAAAACAAiBCAAACAAAgAAAIiAAAAIgIICKAERCAIAAggAAIiAcAgIAOgAAAAAAQAAAAAAAAACAAAAAAAAAAAA==

> <PUBCHEM_IUPAC_OPENEYE_NAME>
naphthalene

> <PUBCHEM_IUPAC_CAS_NAME>
naphthalene

> <PUBCHEM_IUPAC_NAME>
naphthalene

> <PUBCHEM_IUPAC_SYSTEMATIC_NAME>
naphthalene

> <PUBCHEM_IUPAC_TRADITIONAL_NAME>
naphthalene

> <PUBCHEM_IUPAC_INCHI>
InChI=1S/C10H8/c1-2-6-10-8-4-3-7-9(10)5-1/h1-8H

> <PUBCHEM_IUPAC_INCHIKEY>
UFWIBTONFRDIAS-UHFFFAOYSA-N

> <PUBCHEM_XLOGP3>
3.3

> <PUBCHEM_EXACT_MASS>
128.063

> <PUBCHEM_MOLECULAR_FORMULA>
C10H8

> <PUBCHEM_MOLECULAR_WEIGHT>
128.174

> <PUBCHEM_OPENEYE_CAN_SMILES>
C1=CC=C2C=CC=CC2=C1

> <PUBCHEM_OPENEYE_ISO_SMILES>
C1=CC=C2C=CC=CC2=C1

> <PUBCHEM_CACTVS_TPSA>
0

> <PUBCHEM_MONOISOTOPIC_WEIGHT>
128.063

> <PUBCHEM_TOTAL_CHARGE>
0

> <PUBCHEM_HEAVY_ATOM_COUNT>
10

> <PUBCHEM_ATOM_DEF_STEREO_COUNT>
0

> <PUBCHEM_ATOM_UDEF_STEREO_COUNT>
0

> <PUBCHEM_BOND_DEF_STEREO_COUNT>
0

> <PUBCHEM_BOND_UDEF_STEREO_COUNT>
0

> <PUBCHEM_ISOTOPIC_ATOM_COUNT>
0

> <PUBCHEM_COMPONENT_COUNT>
1

> <PUBCHEM_CACTVS_TAUTO_COUNT>
-1

> <PUBCHEM_COORDINATE_TYPE>
1
5
255

> <PUBCHEM_BONDANNOTATIONS>
1  2  8
1  4  8
1  5  8
2  3  8
2  6  8
3  8  8
4  7  8
5  9  8
6  10  8
7  8  8
9  10  8

$$$$
785
  -OEChem-02061913062D

  8  8  0     0  0  0  0  0  0999 V2000
    2.8660    2.0000    0.0000 O   0  0  0  0  0  0  0  0  0  0  0  0
    2.8660   -2.0000    0.0000 O   0  0  0  0  0  0  0  0  0  0  0  0
    2.8660    1.0000    0.0000 C   0  0  0  0  0  0  0  0  0  0  0  0
    2.8660   -1.0000    0.0000 C   0  0  0  0  0  0  0  0  0  0  0  0
    3.7320    0.5000    0.0000 C   0  0  0  0  0  0  0  0  0  0  0  0
    3.7320   -0.5000    0.0000 C   0  0  0  0  0  0  0  0  0  0  0  0
    2.0000    0.5000    0.0000 C   0  0  0  0  0  0  0  0  0  0  0  0
    2.0000   -0.5000    0.0000 C   0  0  0  0  0  0  0  0  0  0  0  0
  1  3  1  0  0  0  0
  2  4  1  0  0  0  0
  3  5  2  0  0  0  0
  3  7  1  0  0  0  0
  4  6  2  0  0  0  0
  4  8  1  0  0  0  0
  5  6  1  0  0  0  0
  7  8  2  0  0  0  0
M  END
> <PUBCHEM_COMPOUND_CID>
785

> <PUBCHEM_COMPOUND_CANONICALIZED>
1

> <PUBCHEM_CACTVS_COMPLEXITY>
54.9

> <PUBCHEM_CACTVS_HBOND_ACCEPTOR>
2

> <PUBCHEM_CACTVS_HBOND_DONOR>
2

> <PUBCHEM_CACTVS_ROTATABLE_BOND>
0

> <PUBCHEM_CACTVS_SUBSKEYS>
AAADcYBgMAAAAAAAAAAAAAAAAAAAAAAAAAAwAAAAAAAAAAABAAAAGgAACAAACASAkAAwBoAAAgCAACBCAAACAAAgIAAIiAAGCIgIJiKCERKAcAAkwBEImAfAQAAAAQAAAAAAAAACAAAAAAAAAAAAAAAAAA==

> <PUBCHEM_IUPAC_OPENEYE_NAME>
benzene-1,4-diol

> <PUBCHEM_IUPAC_CAS_NAME>
benzene-1,4-diol

> <PUBCHEM_IUPAC_NAME>
benzene-1,4-diol

> <PUBCHEM_IUPAC_SYSTEMATIC_NAME>
benzene-1,4-diol

> <PUBCHEM_IUPAC_TRADITIONAL_NAME>
hydroquinone

> <PUBCHEM_IUPAC_INCHI>
InChI=1S/C6H6O2/c7-5-1-2-6(8)4-3-5/h1-4,7-8H

> <PUBCHEM_IUPAC_INCHIKEY>
QIGBRXMKCJKVMJ-UHFFFAOYSA-N

> <PUBCHEM_XLOGP3>
0.6

> <PUBCHEM_EXACT_MASS>
110.037

> <PUBCHEM_MOLECULAR_FORMULA>
C6H6O2

> <PUBCHEM_MOLECULAR_WEIGHT>
110.112

> <PUBCHEM_OPENEYE_CAN_SMILES>
C1=CC(=CC=C1O)O

> <PUBCHEM_OPENEYE_ISO_SMILES>
C1=CC(=CC=C1O)O

> <PUBCHEM_CACTVS_TPSA>
40.5

> <PUBCHEM_MONOISOTOPIC_WEIGHT>
110.037

> <PUBCHEM_TOTAL_CHARGE>
0

> <PUBCHEM_HEAVY_ATOM_COUNT>
8

> <PUBCHEM_ATOM_DEF_STEREO_COUNT>
0

> <PUBCHEM_ATOM_UDEF_STEREO_COUNT>
0

> <PUBCHEM_BOND_DEF_STEREO_COUNT>
0

> <PUBCHEM_BOND_UDEF_STEREO_COUNT>
0

> <PUBCHEM_ISOTOPIC_ATOM_COUNT>
0

> <PUBCHEM_COMPONENT_COUNT>
1

> <PUBCHEM_CACTVS_TAUTO_COUNT>
-1

> <PUBCHEM_COORDINATE_TYPE>
1
5
255

> <PUBCHEM_BONDANNOTATIONS>
3  5  8
3  7  8
4  6  8
4  8  8
5  6  8
7  8  8

$$$$
8640
  -OEChem-02061913072D

 11 12  0     0  0  0  0  0  0999 V2000
    2.8660   -1.3623    0.0000 N   0  0  0  0  0  0  0  0  0  0  0  0
    3.7320    0.1377    0.0000 C   0  0  0  0  0  0  0  0  0  0  0  0
    3.7320    1.1377    0.0000 C   0  0  0  0  0  0  0  0  0  0  0  0
    2.8660   -0.3623    0.0000 C   0  0  0  0  0  0  0  0  0  0  0  0
    4.6260   -0.3970    0.0000 C   0  0  0  0  0  0  0  0  0  0  0  0
    2.8660    1.6377    0.0000 C   0  0  0  0  0  0  0  0  0  0  0  0
    4.6260    1.6723    0.0000 C   0  0  0  0  0  0  0  0  0  0  0  0
    2.0000    0.1377    0.0000 C   0  0  0  0  0  0  0  0  0  0  0  0
    2.0000    1.1377    0.0000 C   0  0  0  0  0  0  0  0  0  0  0  0
    5.5321    0.1169    0.0000 C   0  0  0  0  0  0  0  0  0  0  0  0
    5.5321    1.1585    0.0000 C   0  0  0  0  0  0  0  0  0  0  0  0
  1  4  1  0  0  0  0
  2  3  1  0  0  0  0
  2  4  1  0  0  0  0
  2  5  2  0  0  0  0
  3  6  1  0  0  0  0
  3  7  2  0  0  0  0
  4  8  2  0  0  0  0
  5 10  1  0  0  0  0
  6  9  2  0  0  0  0
  7 11  1  0  0  0  0
  8  9  1  0  0  0  0
 10 11  2  0  0  0  0
M  END
> <PUBCHEM_COMPOUND_CID>
8640

> <PUBCHEM_COMPOUND_CANONICALIZED>
1

> <PUBCHEM_CACTVS_COMPLEXITY>
133

> <PUBCHEM_CACTVS_HBOND_ACCEPTOR>
1

> <PUBCHEM_CACTVS_HBOND_DONOR>
1

> <PUBCHEM_CACTVS_ROTATABLE_BOND>
0

> <PUBCHEM_CACTVS_SUBSKEYS>
AAADccByAAAAAAAAAAAAAAAAAAAAAAAAAAAwYAAAAAAAAADBUAAAHAAQAAAADAiBGAAwwMBAAACAAiRCQACCAAAgAgAIiAAAZIgIICKAkZGAIABgkAAIyAcQgIAOgAAAQAASAAAAAACAACQAAAAAAAAAAA==

> <PUBCHEM_IUPAC_OPENEYE_NAME>
naphthalen-1-amine

> <PUBCHEM_IUPAC_CAS_NAME>
1-naphthalenamine

> <PUBCHEM_IUPAC_NAME>
naphthalen-1-amine

> <PUBCHEM_IUPAC_SYSTEMATIC_NAME>
naphthalen-1-amine

> <PUBCHEM_IUPAC_TRADITIONAL_NAME>
1-naphthylamine

> <PUBCHEM_IUPAC_INCHI>
InChI=1S/C10H9N/c11-10-7-3-5-8-4-1-2-6-9(8)10/h1-7H,11H2

> <PUBCHEM_IUPAC_INCHIKEY>
RUFPHBVGCFYCNW-UHFFFAOYSA-N

> <PUBCHEM_XLOGP3>
2.2

> <PUBCHEM_EXACT_MASS>
143.073

> <PUBCHEM_MOLECULAR_FORMULA>
C10H9N

> <PUBCHEM_MOLECULAR_WEIGHT>
143.189

> <PUBCHEM_OPENEYE_CAN_SMILES>
C1=CC=C2C(=C1)C=CC=C2N

> <PUBCHEM_OPENEYE_ISO_SMILES>
C1=CC=C2C(=C1)C=CC=C2N

> <PUBCHEM_CACTVS_TPSA>
26

> <PUBCHEM_MONOISOTOPIC_WEIGHT>
143.073

> <PUBCHEM_TOTAL_CHARGE>
0

> <PUBCHEM_HEAVY_ATOM_COUNT>
11

> <PUBCHEM_ATOM_DEF_STEREO_COUNT>
0

> <PUBCHEM_ATOM_UDEF_STEREO_COUNT>
0

> <PUBCHEM_BOND_DEF_STEREO_COUNT>
0

> <PUBCHEM_BOND_UDEF_STEREO_COUNT>
0

> <PUBCHEM_ISOTOPIC_ATOM_COUNT>
0

> <PUBCHEM_COMPONENT_COUNT>
1

> <PUBCHEM_CACTVS_TAUTO_COUNT>
-1

> <PUBCHEM_COORDINATE_TYPE>
1
5
255

> <PUBCHEM_BONDANNOTATIONS>
10  11  8
2  3  8
2  4  8
2  5  8
3  6  8
3  7  8
4  8  8
5  10  8
6  9  8
7  11  8
8  9  8

$$$$
